Circuit: * C:\Users\jmfro\OneDrive\Documents\EE333-Project1\Draft1.asc

WARNING: Node N002 is floating.

.OP point found by inspection.

Date: Tue Aug 30 19:49:01 2022
Total elapsed time: 0.049 seconds.

tnom = 27
temp = 27
method = modified trap
totiter = 1013
traniter = 1013
tranpoints = 317
accept = 230
rejected = 87
matrix size = 9
fillins = 3
solver = Normal
Matrix Compiler1:      42 opcodes  0.1/[0.1]/0.1
Matrix Compiler2: off  [0.1]/0.1/0.1

