Circuit: * C:\Users\austi\OneDrive\Documents\EE333-Project1\Draft1.asc

Direct Newton iteration for .op point succeeded.

Date: Sun Sep 11 20:33:55 2022
Total elapsed time: 0.036 seconds.

tnom = 27
temp = 27
method = modified trap
totiter = 630
traniter = 616
tranpoints = 174
accept = 125
rejected = 49
matrix size = 7
fillins = 0
solver = Normal
Matrix Compiler1: 268 bytes object code size  0.0/0.1/[0.0]
Matrix Compiler2: 477 bytes object code size  0.1/0.1/[0.0]

