Circuit: * C:\Users\austi\OneDrive\Documents\EE333-Project1\ProjectDraft.asc

WARNING: Node 120VACH is floating.

WARNING: Less than two connections to node NC_02.  This node is used by S:U1:1.
Early termination of direct N-R iteration.
Direct Newton iteration failed to find .op point.  (Use ".option noopiter" to skip.)
Starting Gmin stepping
Gmin = 10
Gmin = 1.07374
Gmin = 0.115292
Gmin = 0.0123794
Gmin = 0.00132923
Gmin = 0.000142725
Gmin = 1.5325e-005
Gmin = 1.6455e-006
Gmin = 1.76685e-007
Gmin = 1.89714e-008
Gmin = 2.03704e-009
Gmin = 2.18725e-010
Gmin = 2.34854e-011
Gmin = 2.52173e-012
Gmin = 2.70769e-013
Gmin = 0
Gmin stepping succeeded in finding the operating point.

Heightened Def Con from 0.086034 ++++++++++++++++++++++++++++++++++to 0.086034
Heightened Def Con from 0.086034 ++++++++++++++++++++++++++++++++++to 0.086034
Heightened Def Con from 0.086034 ++++++++++++++++++++++++++++++++++to 0.086034
Heightened Def Con from 0.086034 ++++++++++++++++++++++++++++++++++to 0.086034
Heightened Def Con from 0.086034 ++++++++++++++++++++++++++++++++++to 0.086034
Heightened Def Con from 0.086034 ++++++++++++++++++++++++++++++++++to 0.086034
Heightened Def Con from 0.086034 ++++++++++++++++++++++++++++++++++to 0.086034
Heightened Def Con from 0.086034 ++++++++++++++++++++++++++++++++++to 0.086034
Heightened Def Con from 0.086034 ++++++++++++++++++++++++++++++++++to 0.086034
Heightened Def Con from 0.086034 ++++++++++++++++++++++++++++++++++to 0.086034
Heightened Def Con from 0.086034 ++++++++++++++++++++++++++++++++++to 0.086034
Heightened Def Con from 0.086034 ++++++++++++++++++++++++++++++++++to 0.086034
Heightened Def Con from 0.086034 ++++++++++++++++++++++++++++++++++to 0.086034
Heightened Def Con from 0.086034 ++++++++++++++++++++++++++++++++++to 0.086034
Heightened Def Con from 0.086034 ++++++++++++++++++++++++++++++++++to 0.086034
Heightened Def Con from 0.086034 ++++++++++++++++++++++++++++++++++to 0.086034
Heightened Def Con from 0.086034 ++++++++++++++++++++++++++++++++++to 0.086034
Heightened Def Con from 0.086034 ++++++++++++++++++++++++++++++++++to 0.086034
Heightened Def Con from 0.086034 ++++++++++++++++++++++++++++++++++to 0.086034
Heightened Def Con from 0.086034 ++++++++++++++++++++++++++++++++++to 0.086034
Heightened Def Con from 0.086034 ++++++++++++++++++++++++++++++++++to 0.086034
Heightened Def Con from 0.086034 ++++++++++++++++++++++++++++++++++to 0.086034
Heightened Def Con from 0.086034 ++++++++++++++++++++++++++++++++++to 0.086034
Heightened Def Con from 0.086034 ++++++++++++++++++++++++++++++++++to 0.0860341
Heightened Def Con from 0.0860341 ++++++++++++++++++++++++++++++++++to 0.0860341
Heightened Def Con from 0.0860341 ++++++++++++++++++++++++++++++++++to 0.0860341
Heightened Def Con from 0.0860341 ++++++++++++++++++++++++++++++++++to 0.0860341
Heightened Def Con from 0.0860341 ++++++++++++++++++++++++++++++++++to 0.0860341
Heightened Def Con from 0.0860341 ++++++++++++++++++++++++++++++++++to 0.0860341
Heightened Def Con from 0.0860341 ++++++++++++++++++++++++++++++++++to 0.0860341
Heightened Def Con from 0.0860341 ++++++++++++++++++++++++++++++++++to 0.0860341
Heightened Def Con from 0.0860341 ++++++++++++++++++++++++++++++++++to 0.0860341
Heightened Def Con from 0.0860341 ++++++++++++++++++++++++++++++++++to 0.0860341
Heightened Def Con from 0.0860341 ++++++++++++++++++++++++++++++++++to 0.0860341
Heightened Def Con from 0.0860341 ++++++++++++++++++++++++++++++++++to 0.0860341
Heightened Def Con from 0.0860341 ++++++++++++++++++++++++++++++++++to 0.0860341
Heightened Def Con from 0.0860341 ++++++++++++++++++++++++++++++++++to 0.0860341
Heightened Def Con from 0.0860341 ++++++++++++++++++++++++++++++++++to 0.0860341
Heightened Def Con from 0.0860341 ++++++++++++++++++++++++++++++++++to 0.0860341
Heightened Def Con from 0.0860341 ++++++++++++++++++++++++++++++++++to 0.0860341
Heightened Def Con from 0.0860341 ++++++++++++++++++++++++++++++++++to 0.0860341
Heightened Def Con from 0.0860341 ++++++++++++++++++++++++++++++++++to 0.0860341
Heightened Def Con from 0.0860341 ++++++++++++++++++++++++++++++++++to 0.0860341
Heightened Def Con from 0.0860341 ++++++++++++++++++++++++++++++++++to 0.0860341
Heightened Def Con from 0.0860341 ++++++++++++++++++++++++++++++++++to 0.0860341
Heightened Def Con from 0.0860341 ++++++++++++++++++++++++++++++++++to 0.0860341
Heightened Def Con from 0.0860341 ++++++++++++++++++++++++++++++++++to 0.0860341
Heightened Def Con from 0.0860341 ++++++++++++++++++++++++++++++++++to 0.0860341
Heightened Def Con from 0.0860341 ++++++++++++++++++++++++++++++++++to 0.0860341
Heightened Def Con from 0.0860341 ++++++++++++++++++++++++++++++++++to 0.0860341
Heightened Def Con from 0.0860341 ++++++++++++++++++++++++++++++++++to 0.0860341
Heightened Def Con from 0.0860341 ++++++++++++++++++++++++++++++++++to 0.0860341
Heightened Def Con from 0.0860341 ++++++++++++++++++++++++++++++++++to 0.0860341
Heightened Def Con from 0.0860341 ++++++++++++++++++++++++++++++++++to 0.0860341
Heightened Def Con from 0.0860341 ++++++++++++++++++++++++++++++++++to 0.0860341
Heightened Def Con from 0.0860341 ++++++++++++++++++++++++++++++++++to 0.0860341
Heightened Def Con from 0.0860341 ++++++++++++++++++++++++++++++++++to 0.0860341
Heightened Def Con from 0.0860341 ++++++++++++++++++++++++++++++++++to 0.0860341
Heightened Def Con from 0.0860341 ++++++++++++++++++++++++++++++++++to 0.0860341
Heightened Def Con from 0.0860341 ++++++++++++++++++++++++++++++++++to 0.0860341
Heightened Def Con from 0.0860341 ++++++++++++++++++++++++++++++++++to 0.0860341
Heightened Def Con from 0.0860341 ++++++++++++++++++++++++++++++++++to 0.0860341
Heightened Def Con from 0.0860341 ++++++++++++++++++++++++++++++++++to 0.0860341
Heightened Def Con from 0.0860341 ++++++++++++++++++++++++++++++++++to 0.0860341
Heightened Def Con from 0.0860341 ++++++++++++++++++++++++++++++++++to 0.0860341
Heightened Def Con from 0.0860341 ++++++++++++++++++++++++++++++++++to 0.0860341
Heightened Def Con from 0.0860341 ++++++++++++++++++++++++++++++++++to 0.0860341
Heightened Def Con from 0.0860341 ++++++++++++++++++++++++++++++++++to 0.0860341
Heightened Def Con from 0.0860341 ++++++++++++++++++++++++++++++++++to 0.0860341
Heightened Def Con from 0.0860341 ++++++++++++++++++++++++++++++++++to 0.0860341
Heightened Def Con from 0.0860341 ++++++++++++++++++++++++++++++++++to 0.0860341
Heightened Def Con from 0.0860341 ++++++++++++++++++++++++++++++++++to 0.0860341
Heightened Def Con from 0.0860341 ++++++++++++++++++++++++++++++++++to 0.0860341
Heightened Def Con from 0.0860341 ++++++++++++++++++++++++++++++++++to 0.0860341
Heightened Def Con from 0.0860341 ++++++++++++++++++++++++++++++++++to 0.0860341
Heightened Def Con from 0.0860341 ++++++++++++++++++++++++++++++++++to 0.0860341
Heightened Def Con from 0.0860341 ++++++++++++++++++++++++++++++++++to 0.0860341
Heightened Def Con from 0.0860341 ++++++++++++++++++++++++++++++++++to 0.0860341
Heightened Def Con from 0.0860341 ++++++++++++++++++++++++++++++++++to 0.0860341
Heightened Def Con from 0.0860341 ++++++++++++++++++++++++++++++++++to 0.0860341
Heightened Def Con from 0.0860341 ++++++++++++++++++++++++++++++++++to 0.0860341
Heightened Def Con from 0.0860341 ++++++++++++++++++++++++++++++++++to 0.0860341
Heightened Def Con from 0.0860341 ++++++++++++++++++++++++++++++++++to 0.0860341
Heightened Def Con from 0.0860341 ++++++++++++++++++++++++++++++++++to 0.0860342
Heightened Def Con from 0.0860342 ++++++++++++++++++++++++++++++++++to 0.0860342
Heightened Def Con from 0.0860342 ++++++++++++++++++++++++++++++++++to 0.0860342
Heightened Def Con from 0.0860342 ++++++++++++++++++++++++++++++++++to 0.0860342
Heightened Def Con from 0.0860342 ++++++++++++++++++++++++++++++++++to 0.0860342
Heightened Def Con from 0.0860342 ++++++++++++++++++++++++++++++++++to 0.0860342
Heightened Def Con from 0.0860342 ++++++++++++++++++++++++++++++++++to 0.0860342
Heightened Def Con from 0.0860342 ++++++++++++++++++++++++++++++++++to 0.0860342
Heightened Def Con from 0.0860342 ++++++++++++++++++++++++++++++++++to 0.0860342
Heightened Def Con from 0.0860342 ++++++++++++++++++++++++++++++++++to 0.0860342
Heightened Def Con from 0.0860342 ++++++++++++++++++++++++++++++++++to 0.0860342
Heightened Def Con from 0.0860342 ++++++++++++++++++++++++++++++++++to 0.0860342
Heightened Def Con from 0.0860342 ++++++++++++++++++++++++++++++++++to 0.0860342
Heightened Def Con from 0.0860342 ++++++++++++++++++++++++++++++++++to 0.0860342
Heightened Def Con from 0.0860342 ++++++++++++++++++++++++++++++++++to 0.0860342
Heightened Def Con from 0.0860342 ++++++++++++++++++++++++++++++++++to 0.0860342
Heightened Def Con from 0.0860342 ++++++++++++++++++++++++++++++++++to 0.0860342
Heightened Def Con from 0.0860342 ++++++++++++++++++++++++++++++++++to 0.0860342
Heightened Def Con from 0.0860342 ++++++++++++++++++++++++++++++++++to 0.0860342
Heightened Def Con from 0.0860342 ++++++++++++++++++++++++++++++++++to 0.0860342
Heightened Def Con from 0.0860342 ++++++++++++++++++++++++++++++++++to 0.0860342
Heightened Def Con from 0.0860342 ++++++++++++++++++++++++++++++++++to 0.0860342
Heightened Def Con from 0.0860342 ++++++++++++++++++++++++++++++++++to 0.0860342
Heightened Def Con from 0.0860342 ++++++++++++++++++++++++++++++++++to 0.0860342
Heightened Def Con from 0.0860342 ++++++++++++++++++++++++++++++++++to 0.0860342
Heightened Def Con from 0.0860342 ++++++++++++++++++++++++++++++++++to 0.0860342
Heightened Def Con from 0.0860342 ++++++++++++++++++++++++++++++++++to 0.0860342
Heightened Def Con from 0.0860342 ++++++++++++++++++++++++++++++++++to 0.0860342
Heightened Def Con from 0.0860342 ++++++++++++++++++++++++++++++++++to 0.0860342
Heightened Def Con from 0.0860342 ++++++++++++++++++++++++++++++++++to 0.0860342
Heightened Def Con from 0.0860342 ++++++++++++++++++++++++++++++++++to 0.0860342
Heightened Def Con from 0.0860342 ++++++++++++++++++++++++++++++++++to 0.0860342
Heightened Def Con from 0.0860342 ++++++++++++++++++++++++++++++++++to 0.0860342
Heightened Def Con from 0.0860342 ++++++++++++++++++++++++++++++++++to 0.0860342
Heightened Def Con from 0.0860342 ++++++++++++++++++++++++++++++++++to 0.0860342
Heightened Def Con from 0.0860342 ++++++++++++++++++++++++++++++++++to 0.0860342
Heightened Def Con from 0.0860342 ++++++++++++++++++++++++++++++++++to 0.0860342
Heightened Def Con from 0.0860342 ++++++++++++++++++++++++++++++++++to 0.0860342
Heightened Def Con from 0.0860342 ++++++++++++++++++++++++++++++++++to 0.0860342
Heightened Def Con from 0.0860342 ++++++++++++++++++++++++++++++++++to 0.0860342
Heightened Def Con from 0.0860342 ++++++++++++++++++++++++++++++++++to 0.0860342
Heightened Def Con from 0.0860342 ++++++++++++++++++++++++++++++++++to 0.0860342
Heightened Def Con from 0.0860342 ++++++++++++++++++++++++++++++++++to 0.0860342
Heightened Def Con from 0.0860342 ++++++++++++++++++++++++++++++++++to 0.0860342
Heightened Def Con from 0.0860342 ++++++++++++++++++++++++++++++++++to 0.0860342
Heightened Def Con from 0.0860342 ++++++++++++++++++++++++++++++++++to 0.0860342
Heightened Def Con from 0.0860342 ++++++++++++++++++++++++++++++++++to 0.0860342
Heightened Def Con from 0.0860342 ++++++++++++++++++++++++++++++++++to 0.0860342
Heightened Def Con from 0.0860342 ++++++++++++++++++++++++++++++++++to 0.0860342
Heightened Def Con from 0.0860342 ++++++++++++++++++++++++++++++++++to 0.0860342
Heightened Def Con from 0.0860342 ++++++++++++++++++++++++++++++++++to 0.0860342
Heightened Def Con from 0.0860342 ++++++++++++++++++++++++++++++++++to 0.0860342
Heightened Def Con from 0.0860342 ++++++++++++++++++++++++++++++++++to 0.0860342
Heightened Def Con from 0.0860342 ++++++++++++++++++++++++++++++++++to 0.0860342
Heightened Def Con from 0.0860342 ++++++++++++++++++++++++++++++++++to 0.0860342
Heightened Def Con from 0.0860342 ++++++++++++++++++++++++++++++++++to 0.0860342
Heightened Def Con from 0.0860342 ++++++++++++++++++++++++++++++++++to 0.0860342
Heightened Def Con from 0.0860342 ++++++++++++++++++++++++++++++++++to 0.0860342
Heightened Def Con from 0.0860342 ++++++++++++++++++++++++++++++++++to 0.0860342
Heightened Def Con from 0.0860342 ++++++++++++++++++++++++++++++++++to 0.0860342
Heightened Def Con from 0.0860342 ++++++++++++++++++++++++++++++++++to 0.0860342
Heightened Def Con from 0.0860342 ++++++++++++++++++++++++++++++++++to 0.0860342
Heightened Def Con from 0.0860342 ++++++++++++++++++++++++++++++++++to 0.0860342
Heightened Def Con from 0.0860342 ++++++++++++++++++++++++++++++++++to 0.0860342
Heightened Def Con from 0.0860342 ++++++++++++++++++++++++++++++++++to 0.0860342
Heightened Def Con from 0.0860342 ++++++++++++++++++++++++++++++++++to 0.0860342
Heightened Def Con from 0.0860342 ++++++++++++++++++++++++++++++++++to 0.0860342
Heightened Def Con from 0.0860342 ++++++++++++++++++++++++++++++++++to 0.0860342
Heightened Def Con from 0.0860342 ++++++++++++++++++++++++++++++++++to 0.0860342
Heightened Def Con from 0.0860342 ++++++++++++++++++++++++++++++++++to 0.0860342
Heightened Def Con from 0.0860342 ++++++++++++++++++++++++++++++++++to 0.0860342
Heightened Def Con from 0.0860342 ++++++++++++++++++++++++++++++++++to 0.0860342
Heightened Def Con from 0.0860342 ++++++++++++++++++++++++++++++++++to 0.0860342
Heightened Def Con from 0.0860342 ++++++++++++++++++++++++++++++++++to 0.0860342
Heightened Def Con from 0.0860342 ++++++++++++++++++++++++++++++++++to 0.0860342
Heightened Def Con from 0.0860342 ++++++++++++++++++++++++++++++++++to 0.0860342
Heightened Def Con from 0.0860342 ++++++++++++++++++++++++++++++++++to 0.0860342
Heightened Def Con from 0.0860342 ++++++++++++++++++++++++++++++++++to 0.0860342
Heightened Def Con from 0.0860342 ++++++++++++++++++++++++++++++++++to 0.0860342
Heightened Def Con from 0.0860342 ++++++++++++++++++++++++++++++++++to 0.0860342
Heightened Def Con from 0.0860342 ++++++++++++++++++++++++++++++++++to 0.0860342
Heightened Def Con from 0.0860342 ++++++++++++++++++++++++++++++++++to 0.0860342
Heightened Def Con from 0.0860342 ++++++++++++++++++++++++++++++++++to 0.0860342
Heightened Def Con from 0.0860342 ++++++++++++++++++++++++++++++++++to 0.0860342
Heightened Def Con from 0.0860342 ++++++++++++++++++++++++++++++++++to 0.0860342
Heightened Def Con from 0.0860342 ++++++++++++++++++++++++++++++++++to 0.0860342
Heightened Def Con from 0.0860342 ++++++++++++++++++++++++++++++++++to 0.0860342
Heightened Def Con from 0.0860342 ++++++++++++++++++++++++++++++++++to 0.0860342
Heightened Def Con from 0.0860342 ++++++++++++++++++++++++++++++++++to 0.0860342
Heightened Def Con from 0.0860342 ++++++++++++++++++++++++++++++++++to 0.0860342
Heightened Def Con from 0.0860342 ++++++++++++++++++++++++++++++++++to 0.0860342
Heightened Def Con from 0.0860342 ++++++++++++++++++++++++++++++++++to 0.0860342
Heightened Def Con from 0.0860342 ++++++++++++++++++++++++++++++++++to 0.0860342
Heightened Def Con from 0.0860342 ++++++++++++++++++++++++++++++++++to 0.0860342
Heightened Def Con from 0.0860342 ++++++++++++++++++++++++++++++++++to 0.0860342
Heightened Def Con from 0.0860342 ++++++++++++++++++++++++++++++++++to 0.0860342
Heightened Def Con from 0.0860342 ++++++++++++++++++++++++++++++++++to 0.0860342
Heightened Def Con from 0.0860342 ++++++++++++++++++++++++++++++++++to 0.0860342
Heightened Def Con from 0.0860342 ++++++++++++++++++++++++++++++++++to 0.0860342
Heightened Def Con from 0.0860342 ++++++++++++++++++++++++++++++++++to 0.0860342
Heightened Def Con from 0.0860342 ++++++++++++++++++++++++++++++++++to 0.0860343
Heightened Def Con from 0.0860343 ++++++++++++++++++++++++++++++++++to 0.0860343
Heightened Def Con from 0.0860343 ++++++++++++++++++++++++++++++++++to 0.0860343
Heightened Def Con from 0.0860343 ++++++++++++++++++++++++++++++++++to 0.0860343
Heightened Def Con from 0.0860343 ++++++++++++++++++++++++++++++++++to 0.0860343
Heightened Def Con from 0.0860343 ++++++++++++++++++++++++++++++++++to 0.0860343
Heightened Def Con from 0.0860343 ++++++++++++++++++++++++++++++++++to 0.0860343
Heightened Def Con from 0.0860343 ++++++++++++++++++++++++++++++++++to 0.0860343
Heightened Def Con from 0.0860343 ++++++++++++++++++++++++++++++++++to 0.0860343
Heightened Def Con from 0.0860343 ++++++++++++++++++++++++++++++++++to 0.0860343
Heightened Def Con from 0.0860343 ++++++++++++++++++++++++++++++++++to 0.0860343
Heightened Def Con from 0.0860343 ++++++++++++++++++++++++++++++++++to 0.0860343
Heightened Def Con from 0.0860343 ++++++++++++++++++++++++++++++++++to 0.0860343
Heightened Def Con from 0.0860343 ++++++++++++++++++++++++++++++++++to 0.0860343
Heightened Def Con from 0.0860343 ++++++++++++++++++++++++++++++++++to 0.0860343
Heightened Def Con from 0.0860343 ++++++++++++++++++++++++++++++++++to 0.0860343
Heightened Def Con from 0.0860343 ++++++++++++++++++++++++++++++++++to 0.0860343
Heightened Def Con from 0.0860343 ++++++++++++++++++++++++++++++++++to 0.0860343
Heightened Def Con from 0.0860343 ++++++++++++++++++++++++++++++++++to 0.0860343
Heightened Def Con from 0.0860343 ++++++++++++++++++++++++++++++++++to 0.0860343
Heightened Def Con from 0.0860343 ++++++++++++++++++++++++++++++++++to 0.0860343
Heightened Def Con from 0.0860343 ++++++++++++++++++++++++++++++++++to 0.0860343
Heightened Def Con from 0.0860343 ++++++++++++++++++++++++++++++++++to 0.0860343
Heightened Def Con from 0.0860343 ++++++++++++++++++++++++++++++++++to 0.0860343
Heightened Def Con from 0.0860343 ++++++++++++++++++++++++++++++++++to 0.0860343
Heightened Def Con from 0.0860343 ++++++++++++++++++++++++++++++++++to 0.0860343
Heightened Def Con from 0.0860343 ++++++++++++++++++++++++++++++++++to 0.0860343
Heightened Def Con from 0.0860343 ++++++++++++++++++++++++++++++++++to 0.0860343
Heightened Def Con from 0.0860343 ++++++++++++++++++++++++++++++++++to 0.0860343
Heightened Def Con from 0.0860343 ++++++++++++++++++++++++++++++++++to 0.0860343
Heightened Def Con from 0.0860343 ++++++++++++++++++++++++++++++++++to 0.0860343
Heightened Def Con from 0.0860343 ++++++++++++++++++++++++++++++++++to 0.0860343
Heightened Def Con from 0.0860343 ++++++++++++++++++++++++++++++++++to 0.0860343
Heightened Def Con from 0.0860343 ++++++++++++++++++++++++++++++++++to 0.0860343
Heightened Def Con from 0.0860343 ++++++++++++++++++++++++++++++++++to 0.0860343
Heightened Def Con from 0.0860343 ++++++++++++++++++++++++++++++++++to 0.0860344
Heightened Def Con from 0.0860344 ++++++++++++++++++++++++++++++++++to 0.0860344
Heightened Def Con from 0.0860344 ++++++++++++++++++++++++++++++++++to 0.0860344
Heightened Def Con from 0.0860344 ++++++++++++++++++++++++++++++++++to 0.0860344
Heightened Def Con from 0.0860344 ++++++++++++++++++++++++++++++++++to 0.0860344
Heightened Def Con from 0.0860344 ++++++++++++++++++++++++++++++++++to 0.0860344
Heightened Def Con from 0.0860344 ++++++++++++++++++++++++++++++++++to 0.0860344
Heightened Def Con from 0.0860344 ++++++++++++++++++++++++++++++++++to 0.0860344
Heightened Def Con from 0.0860344 ++++++++++++++++++++++++++++++++++to 0.0860344
Heightened Def Con from 0.0860344 ++++++++++++++++++++++++++++++++++to 0.0860344
Heightened Def Con from 0.0860344 ++++++++++++++++++++++++++++++++++to 0.0860344
Heightened Def Con from 0.0860344 ++++++++++++++++++++++++++++++++++to 0.0860344
Heightened Def Con from 0.0860344 ++++++++++++++++++++++++++++++++++to 0.0860344
Heightened Def Con from 0.0860344 ++++++++++++++++++++++++++++++++++to 0.0860344
Heightened Def Con from 0.0860344 ++++++++++++++++++++++++++++++++++to 0.0860344
Heightened Def Con from 0.0860344 ++++++++++++++++++++++++++++++++++to 0.0860344
Heightened Def Con from 0.0860344 ++++++++++++++++++++++++++++++++++to 0.0860344
Heightened Def Con from 0.0860344 ++++++++++++++++++++++++++++++++++to 0.0860344
Heightened Def Con from 0.0860344 ++++++++++++++++++++++++++++++++++to 0.0860344
Heightened Def Con from 0.0860344 ++++++++++++++++++++++++++++++++++to 0.0860344
Heightened Def Con from 0.0860344 ++++++++++++++++++++++++++++++++++to 0.0860344
Heightened Def Con from 0.0860344 ++++++++++++++++++++++++++++++++++to 0.0860344
Heightened Def Con from 0.0860344 ++++++++++++++++++++++++++++++++++to 0.0860344
Heightened Def Con from 0.0860344 ++++++++++++++++++++++++++++++++++to 0.0860344
Heightened Def Con from 0.0860344 ++++++++++++++++++++++++++++++++++to 0.0860344
Heightened Def Con from 0.0860344 ++++++++++++++++++++++++++++++++++to 0.0860344
Heightened Def Con from 0.0860344 ++++++++++++++++++++++++++++++++++to 0.0860344
Heightened Def Con from 0.0860344 ++++++++++++++++++++++++++++++++++to 0.0860344
Heightened Def Con from 0.0860344 ++++++++++++++++++++++++++++++++++to 0.0860344
Heightened Def Con from 0.0860344 ++++++++++++++++++++++++++++++++++to 0.0860344
Heightened Def Con from 0.0860344 ++++++++++++++++++++++++++++++++++to 0.0860344
Heightened Def Con from 0.0860344 ++++++++++++++++++++++++++++++++++to 0.0860344
Heightened Def Con from 0.0860344 ++++++++++++++++++++++++++++++++++to 0.0860344
Heightened Def Con from 0.0860344 ++++++++++++++++++++++++++++++++++to 0.0860344
Heightened Def Con from 0.0860344 ++++++++++++++++++++++++++++++++++to 0.0860344
Heightened Def Con from 0.0860344 ++++++++++++++++++++++++++++++++++to 0.0860344
Heightened Def Con from 0.0860344 ++++++++++++++++++++++++++++++++++to 0.0860344
Heightened Def Con from 0.0860344 ++++++++++++++++++++++++++++++++++to 0.0860344
Heightened Def Con from 0.0860344 ++++++++++++++++++++++++++++++++++to 0.0860344
Heightened Def Con from 0.0860344 ++++++++++++++++++++++++++++++++++to 0.0860344
Heightened Def Con from 0.0860344 ++++++++++++++++++++++++++++++++++to 0.0860344
Heightened Def Con from 0.0860344 ++++++++++++++++++++++++++++++++++to 0.0860344
Heightened Def Con from 0.0860344 ++++++++++++++++++++++++++++++++++to 0.0860344
Heightened Def Con from 0.0860344 ++++++++++++++++++++++++++++++++++to 0.0860344
Heightened Def Con from 0.0860344 ++++++++++++++++++++++++++++++++++to 0.0860344
Heightened Def Con from 0.0860344 ++++++++++++++++++++++++++++++++++to 0.0860344
Heightened Def Con from 0.0860344 ++++++++++++++++++++++++++++++++++to 0.0860344
Heightened Def Con from 0.0860344 ++++++++++++++++++++++++++++++++++to 0.0860344
Heightened Def Con from 0.0860344 ++++++++++++++++++++++++++++++++++to 0.0860344
Heightened Def Con from 0.0860344 ++++++++++++++++++++++++++++++++++to 0.0860344
Heightened Def Con from 0.0860344 ++++++++++++++++++++++++++++++++++to 0.0860344
Heightened Def Con from 0.0860344 ++++++++++++++++++++++++++++++++++to 0.0860344
Heightened Def Con from 0.0860344 ++++++++++++++++++++++++++++++++++to 0.0860344
Heightened Def Con from 0.0860344 ++++++++++++++++++++++++++++++++++to 0.0860344
Heightened Def Con from 0.0860344 ++++++++++++++++++++++++++++++++++to 0.0860344
Heightened Def Con from 0.0860344 ++++++++++++++++++++++++++++++++++to 0.0860344
Heightened Def Con from 0.0860344 ++++++++++++++++++++++++++++++++++to 0.0860344
Heightened Def Con from 0.0860344 ++++++++++++++++++++++++++++++++++to 0.0860344
Heightened Def Con from 0.0860344 ++++++++++++++++++++++++++++++++++to 0.0860344
Heightened Def Con from 0.0860344 ++++++++++++++++++++++++++++++++++to 0.0860344
Heightened Def Con from 0.0860344 ++++++++++++++++++++++++++++++++++to 0.0860344
Heightened Def Con from 0.0860344 ++++++++++++++++++++++++++++++++++to 0.0860344
Heightened Def Con from 0.0860344 ++++++++++++++++++++++++++++++++++to 0.0860344
Heightened Def Con from 0.0860344 ++++++++++++++++++++++++++++++++++to 0.0860344
Heightened Def Con from 0.0860344 ++++++++++++++++++++++++++++++++++to 0.0860344
Heightened Def Con from 0.0860344 ++++++++++++++++++++++++++++++++++to 0.0860344
Heightened Def Con from 0.0860344 ++++++++++++++++++++++++++++++++++to 0.0860344
Heightened Def Con from 0.0860344 ++++++++++++++++++++++++++++++++++to 0.0860344
Heightened Def Con from 0.0860344 ++++++++++++++++++++++++++++++++++to 0.0860344
Heightened Def Con from 0.0860344 ++++++++++++++++++++++++++++++++++to 0.0860344
Heightened Def Con from 0.0860344 ++++++++++++++++++++++++++++++++++to 0.0860344
Heightened Def Con from 0.0860344 ++++++++++++++++++++++++++++++++++to 0.0860344
Heightened Def Con from 0.0860344 ++++++++++++++++++++++++++++++++++to 0.0860344
Heightened Def Con from 0.0860344 ++++++++++++++++++++++++++++++++++to 0.0860344
Heightened Def Con from 0.0860344 ++++++++++++++++++++++++++++++++++to 0.0860344
Heightened Def Con from 0.0860344 ++++++++++++++++++++++++++++++++++to 0.0860344
Heightened Def Con from 0.0860344 ++++++++++++++++++++++++++++++++++to 0.0860344
Heightened Def Con from 0.0860344 ++++++++++++++++++++++++++++++++++to 0.0860344
Heightened Def Con from 0.0860344 ++++++++++++++++++++++++++++++++++to 0.0860344
Heightened Def Con from 0.0860344 ++++++++++++++++++++++++++++++++++to 0.0860344
Heightened Def Con from 0.0860344 ++++++++++++++++++++++++++++++++++to 0.0860344
Heightened Def Con from 0.0860344 ++++++++++++++++++++++++++++++++++to 0.0860344
Heightened Def Con from 0.0860344 ++++++++++++++++++++++++++++++++++to 0.0860344
Heightened Def Con from 0.0860344 ++++++++++++++++++++++++++++++++++to 0.0860344
Heightened Def Con from 0.0860344 ++++++++++++++++++++++++++++++++++to 0.0860344
Heightened Def Con from 0.0860344 ++++++++++++++++++++++++++++++++++to 0.0860345
Heightened Def Con from 0.0860345 ++++++++++++++++++++++++++++++++++to 0.0860345
Heightened Def Con from 0.0860345 ++++++++++++++++++++++++++++++++++to 0.0860345
Heightened Def Con from 0.0860345 ++++++++++++++++++++++++++++++++++to 0.0860345
Heightened Def Con from 0.0860345 ++++++++++++++++++++++++++++++++++to 0.0860345
Heightened Def Con from 0.0860345 ++++++++++++++++++++++++++++++++++to 0.0860345
Heightened Def Con from 0.0860345 ++++++++++++++++++++++++++++++++++to 0.0860345
Heightened Def Con from 0.0860345 ++++++++++++++++++++++++++++++++++to 0.0860345
Heightened Def Con from 0.0860345 ++++++++++++++++++++++++++++++++++to 0.0860345
Heightened Def Con from 0.0860345 ++++++++++++++++++++++++++++++++++to 0.0860345
Heightened Def Con from 0.0860345 ++++++++++++++++++++++++++++++++++to 0.0860345
Heightened Def Con from 0.0860345 ++++++++++++++++++++++++++++++++++to 0.0860345
Heightened Def Con from 0.0860345 ++++++++++++++++++++++++++++++++++to 0.0860345
Heightened Def Con from 0.0860345 ++++++++++++++++++++++++++++++++++to 0.0860345
Heightened Def Con from 0.0860345 ++++++++++++++++++++++++++++++++++to 0.0860345
Heightened Def Con from 0.0860345 ++++++++++++++++++++++++++++++++++to 0.0860345
Heightened Def Con from 0.0860345 ++++++++++++++++++++++++++++++++++to 0.0860345
Heightened Def Con from 0.0860345 ++++++++++++++++++++++++++++++++++to 0.0860345
Heightened Def Con from 0.0860345 ++++++++++++++++++++++++++++++++++to 0.0860345
Heightened Def Con from 0.0860345 ++++++++++++++++++++++++++++++++++to 0.0860345
Heightened Def Con from 0.0860345 ++++++++++++++++++++++++++++++++++to 0.0860345
Heightened Def Con from 0.0860345 ++++++++++++++++++++++++++++++++++to 0.0860345
Heightened Def Con from 0.0860345 ++++++++++++++++++++++++++++++++++to 0.0860345
Heightened Def Con from 0.0860345 ++++++++++++++++++++++++++++++++++to 0.0860345
Heightened Def Con from 0.0860345 ++++++++++++++++++++++++++++++++++to 0.0860345
Heightened Def Con from 0.0860345 ++++++++++++++++++++++++++++++++++to 0.0860345
Heightened Def Con from 0.0860345 ++++++++++++++++++++++++++++++++++to 0.0860345
Heightened Def Con from 0.0860345 ++++++++++++++++++++++++++++++++++to 0.0860345
Heightened Def Con from 0.0860345 ++++++++++++++++++++++++++++++++++to 0.0860345
Heightened Def Con from 0.0860345 ++++++++++++++++++++++++++++++++++to 0.0860345
Heightened Def Con from 0.0860345 ++++++++++++++++++++++++++++++++++to 0.0860345
Heightened Def Con from 0.0860345 ++++++++++++++++++++++++++++++++++to 0.0860345
Heightened Def Con from 0.0860345 ++++++++++++++++++++++++++++++++++to 0.0860345
Heightened Def Con from 0.0860345 ++++++++++++++++++++++++++++++++++to 0.0860345
Heightened Def Con from 0.0860345 ++++++++++++++++++++++++++++++++++to 0.0860345
Heightened Def Con from 0.0860345 ++++++++++++++++++++++++++++++++++to 0.0860345
Heightened Def Con from 0.0860345 ++++++++++++++++++++++++++++++++++to 0.0860345
Heightened Def Con from 0.0860345 ++++++++++++++++++++++++++++++++++to 0.0860345
Heightened Def Con from 0.0860345 ++++++++++++++++++++++++++++++++++to 0.0860345
Heightened Def Con from 0.0860345 ++++++++++++++++++++++++++++++++++to 0.0860345
Heightened Def Con from 0.0860345 ++++++++++++++++++++++++++++++++++to 0.0860345
Heightened Def Con from 0.0860345 ++++++++++++++++++++++++++++++++++to 0.0860345
Heightened Def Con from 0.0860345 ++++++++++++++++++++++++++++++++++to 0.0860345
Heightened Def Con from 0.0860345 ++++++++++++++++++++++++++++++++++to 0.0860345
Heightened Def Con from 0.0860345 ++++++++++++++++++++++++++++++++++to 0.0860345
Heightened Def Con from 0.0860345 ++++++++++++++++++++++++++++++++++to 0.0860345
Heightened Def Con from 0.0860345 ++++++++++++++++++++++++++++++++++to 0.0860345
Heightened Def Con from 0.0860345 ++++++++++++++++++++++++++++++++++to 0.0860345
Heightened Def Con from 0.0860345 ++++++++++++++++++++++++++++++++++to 0.0860345
Heightened Def Con from 0.0860345 ++++++++++++++++++++++++++++++++++to 0.0860345
Heightened Def Con from 0.0860345 ++++++++++++++++++++++++++++++++++to 0.0860345
Heightened Def Con from 0.0860345 ++++++++++++++++++++++++++++++++++to 0.0860345
Heightened Def Con from 0.0860345 ++++++++++++++++++++++++++++++++++to 0.0860345
Heightened Def Con from 0.0860345 ++++++++++++++++++++++++++++++++++to 0.0860345
Heightened Def Con from 0.0860345 ++++++++++++++++++++++++++++++++++to 0.0860345
Heightened Def Con from 0.0860345 ++++++++++++++++++++++++++++++++++to 0.0860345
Heightened Def Con from 0.0860345 ++++++++++++++++++++++++++++++++++to 0.0860345
Heightened Def Con from 0.0860345 ++++++++++++++++++++++++++++++++++to 0.0860345
Heightened Def Con from 0.0860345 ++++++++++++++++++++++++++++++++++to 0.0860345
Heightened Def Con from 0.0860345 ++++++++++++++++++++++++++++++++++to 0.0860345
Heightened Def Con from 0.0860345 ++++++++++++++++++++++++++++++++++to 0.0860345
Heightened Def Con from 0.0860345 ++++++++++++++++++++++++++++++++++to 0.0860345
Heightened Def Con from 0.0860345 ++++++++++++++++++++++++++++++++++to 0.0860345
Heightened Def Con from 0.0860345 ++++++++++++++++++++++++++++++++++to 0.0860345
Heightened Def Con from 0.0860345 ++++++++++++++++++++++++++++++++++to 0.0860345
Heightened Def Con from 0.0860345 ++++++++++++++++++++++++++++++++++to 0.0860345
Heightened Def Con from 0.0860345 ++++++++++++++++++++++++++++++++++to 0.0860345
Heightened Def Con from 0.0860345 ++++++++++++++++++++++++++++++++++to 0.0860345
Heightened Def Con from 0.0860345 ++++++++++++++++++++++++++++++++++to 0.0860345
Heightened Def Con from 0.0860345 ++++++++++++++++++++++++++++++++++to 0.0860345
Heightened Def Con from 0.0860345 ++++++++++++++++++++++++++++++++++to 0.0860345
Heightened Def Con from 0.0860345 ++++++++++++++++++++++++++++++++++to 0.0860345
Heightened Def Con from 0.0860345 ++++++++++++++++++++++++++++++++++to 0.0860345
Heightened Def Con from 0.0860345 ++++++++++++++++++++++++++++++++++to 0.0860345
Heightened Def Con from 0.0860345 ++++++++++++++++++++++++++++++++++to 0.0860345
Heightened Def Con from 0.0860345 ++++++++++++++++++++++++++++++++++to 0.0860345
Heightened Def Con from 0.0860345 ++++++++++++++++++++++++++++++++++to 0.0860345
Heightened Def Con from 0.0860345 ++++++++++++++++++++++++++++++++++to 0.0860345
Heightened Def Con from 0.0860345 ++++++++++++++++++++++++++++++++++to 0.0860345
Heightened Def Con from 0.0860345 ++++++++++++++++++++++++++++++++++to 0.0860345
Heightened Def Con from 0.0860345 ++++++++++++++++++++++++++++++++++to 0.0860345
Heightened Def Con from 0.0860345 ++++++++++++++++++++++++++++++++++to 0.0860345
Heightened Def Con from 0.0860345 ++++++++++++++++++++++++++++++++++to 0.0860345
Heightened Def Con from 0.0860345 ++++++++++++++++++++++++++++++++++to 0.0860345
Heightened Def Con from 0.0860345 ++++++++++++++++++++++++++++++++++to 0.0860345
Heightened Def Con from 0.0860345 ++++++++++++++++++++++++++++++++++to 0.0860345
Heightened Def Con from 0.0860345 ++++++++++++++++++++++++++++++++++to 0.0860345
Heightened Def Con from 0.0860345 ++++++++++++++++++++++++++++++++++to 0.0860345
Heightened Def Con from 0.0860345 ++++++++++++++++++++++++++++++++++to 0.0860345
Heightened Def Con from 0.0860345 ++++++++++++++++++++++++++++++++++to 0.0860345
Heightened Def Con from 0.0860345 ++++++++++++++++++++++++++++++++++to 0.0860345
Heightened Def Con from 0.0860345 ++++++++++++++++++++++++++++++++++to 0.0860345
Heightened Def Con from 0.0860345 ++++++++++++++++++++++++++++++++++to 0.0860345
Heightened Def Con from 0.0860345 ++++++++++++++++++++++++++++++++++to 0.0860345
Heightened Def Con from 0.0860345 ++++++++++++++++++++++++++++++++++to 0.0860345
Heightened Def Con from 0.0860345 ++++++++++++++++++++++++++++++++++to 0.0860345
Heightened Def Con from 0.0860345 ++++++++++++++++++++++++++++++++++to 0.0860345
Heightened Def Con from 0.0860345 ++++++++++++++++++++++++++++++++++to 0.0860345
Heightened Def Con from 0.0860345 ++++++++++++++++++++++++++++++++++to 0.0860345
Heightened Def Con from 0.0860345 ++++++++++++++++++++++++++++++++++to 0.0860345
Heightened Def Con from 0.0860345 ++++++++++++++++++++++++++++++++++to 0.0860346
Heightened Def Con from 0.0860346 ++++++++++++++++++++++++++++++++++to 0.0860346
Heightened Def Con from 0.0860346 ++++++++++++++++++++++++++++++++++to 0.0860346
Heightened Def Con from 0.0860346 ++++++++++++++++++++++++++++++++++to 0.0860346
Heightened Def Con from 0.0860346 ++++++++++++++++++++++++++++++++++to 0.0860346
Heightened Def Con from 0.0860346 ++++++++++++++++++++++++++++++++++to 0.0860346
Heightened Def Con from 0.0860346 ++++++++++++++++++++++++++++++++++to 0.0860346
Heightened Def Con from 0.0860346 ++++++++++++++++++++++++++++++++++to 0.0860346
Heightened Def Con from 0.0860346 ++++++++++++++++++++++++++++++++++to 0.0860346
Heightened Def Con from 0.0860346 ++++++++++++++++++++++++++++++++++to 0.0860346
Heightened Def Con from 0.0860346 ++++++++++++++++++++++++++++++++++to 0.0860346
Heightened Def Con from 0.0860346 ++++++++++++++++++++++++++++++++++to 0.0860346
Heightened Def Con from 0.0860346 ++++++++++++++++++++++++++++++++++to 0.0860346
Heightened Def Con from 0.0860346 ++++++++++++++++++++++++++++++++++to 0.0860346
Heightened Def Con from 0.0860346 ++++++++++++++++++++++++++++++++++to 0.0860346
Heightened Def Con from 0.0860346 ++++++++++++++++++++++++++++++++++to 0.0860346
Heightened Def Con from 0.0860346 ++++++++++++++++++++++++++++++++++to 0.0860346
Heightened Def Con from 0.0860346 ++++++++++++++++++++++++++++++++++to 0.0860346
Heightened Def Con from 0.0860346 ++++++++++++++++++++++++++++++++++to 0.0860346
Heightened Def Con from 0.0860346 ++++++++++++++++++++++++++++++++++to 0.0860346
Heightened Def Con from 0.0860346 ++++++++++++++++++++++++++++++++++to 0.0860346
Heightened Def Con from 0.0860346 ++++++++++++++++++++++++++++++++++to 0.0860346
Heightened Def Con from 0.0860346 ++++++++++++++++++++++++++++++++++to 0.0860346
Heightened Def Con from 0.0860346 ++++++++++++++++++++++++++++++++++to 0.0860346
Heightened Def Con from 0.0860346 ++++++++++++++++++++++++++++++++++to 0.0860346
Heightened Def Con from 0.0860346 ++++++++++++++++++++++++++++++++++to 0.0860346
Heightened Def Con from 0.0860346 ++++++++++++++++++++++++++++++++++to 0.0860346
Heightened Def Con from 0.0860346 ++++++++++++++++++++++++++++++++++to 0.0860346
Heightened Def Con from 0.0860346 ++++++++++++++++++++++++++++++++++to 0.0860346
Heightened Def Con from 0.0860346 ++++++++++++++++++++++++++++++++++to 0.0860346
Heightened Def Con from 0.0860346 ++++++++++++++++++++++++++++++++++to 0.0860346
Heightened Def Con from 0.0860346 ++++++++++++++++++++++++++++++++++to 0.0860346
Heightened Def Con from 0.0860346 ++++++++++++++++++++++++++++++++++to 0.0860346
Heightened Def Con from 0.0860346 ++++++++++++++++++++++++++++++++++to 0.0860346
Heightened Def Con from 0.0860346 ++++++++++++++++++++++++++++++++++to 0.0860346
Heightened Def Con from 0.0860346 ++++++++++++++++++++++++++++++++++to 0.0860346
Heightened Def Con from 0.0860346 ++++++++++++++++++++++++++++++++++to 0.0860346
Heightened Def Con from 0.0860346 ++++++++++++++++++++++++++++++++++to 0.0860346
Heightened Def Con from 0.0860346 ++++++++++++++++++++++++++++++++++to 0.0860346
Heightened Def Con from 0.0860346 ++++++++++++++++++++++++++++++++++to 0.0860346
Heightened Def Con from 0.0860346 ++++++++++++++++++++++++++++++++++to 0.0860346
Heightened Def Con from 0.0860346 ++++++++++++++++++++++++++++++++++to 0.0860346
Heightened Def Con from 0.0860346 ++++++++++++++++++++++++++++++++++to 0.0860346
Heightened Def Con from 0.0860346 ++++++++++++++++++++++++++++++++++to 0.0860346
Heightened Def Con from 0.0860346 ++++++++++++++++++++++++++++++++++to 0.0860346
Heightened Def Con from 0.0860346 ++++++++++++++++++++++++++++++++++to 0.0860346
Heightened Def Con from 0.0860346 ++++++++++++++++++++++++++++++++++to 0.0860346
Heightened Def Con from 0.0860346 ++++++++++++++++++++++++++++++++++to 0.0860346
Heightened Def Con from 0.0860346 ++++++++++++++++++++++++++++++++++to 0.0860346
Heightened Def Con from 0.0860346 ++++++++++++++++++++++++++++++++++to 0.0860346
Heightened Def Con from 0.0860346 ++++++++++++++++++++++++++++++++++to 0.0860346
Heightened Def Con from 0.0860346 ++++++++++++++++++++++++++++++++++to 0.0860346
Heightened Def Con from 0.0860346 ++++++++++++++++++++++++++++++++++to 0.0860346
Heightened Def Con from 0.0860346 ++++++++++++++++++++++++++++++++++to 0.0860346
Heightened Def Con from 0.0860346 ++++++++++++++++++++++++++++++++++to 0.0860346
Heightened Def Con from 0.0860346 ++++++++++++++++++++++++++++++++++to 0.0860346
Heightened Def Con from 0.0860346 ++++++++++++++++++++++++++++++++++to 0.0860346
Heightened Def Con from 0.0860346 ++++++++++++++++++++++++++++++++++to 0.0860346
Heightened Def Con from 0.0860346 ++++++++++++++++++++++++++++++++++to 0.0860346
Heightened Def Con from 0.0860346 ++++++++++++++++++++++++++++++++++to 0.0860346
Heightened Def Con from 0.0860346 ++++++++++++++++++++++++++++++++++to 0.0860346
Heightened Def Con from 0.0860346 ++++++++++++++++++++++++++++++++++to 0.0860346
Heightened Def Con from 0.0860346 ++++++++++++++++++++++++++++++++++to 0.0860346
Heightened Def Con from 0.0860346 ++++++++++++++++++++++++++++++++++to 0.0860346
Heightened Def Con from 0.0860346 ++++++++++++++++++++++++++++++++++to 0.0860346
Heightened Def Con from 0.0860346 ++++++++++++++++++++++++++++++++++to 0.0860346
Heightened Def Con from 0.0860346 ++++++++++++++++++++++++++++++++++to 0.0860346
Heightened Def Con from 0.0860346 ++++++++++++++++++++++++++++++++++to 0.0860346
Heightened Def Con from 0.0860346 ++++++++++++++++++++++++++++++++++to 0.0860346
Heightened Def Con from 0.0860346 ++++++++++++++++++++++++++++++++++to 0.0860346
Heightened Def Con from 0.0860346 ++++++++++++++++++++++++++++++++++to 0.0860346
Heightened Def Con from 0.0860346 ++++++++++++++++++++++++++++++++++to 0.0860346
Heightened Def Con from 0.0860346 ++++++++++++++++++++++++++++++++++to 0.0860346
Heightened Def Con from 0.0860346 ++++++++++++++++++++++++++++++++++to 0.0860346
Heightened Def Con from 0.0860346 ++++++++++++++++++++++++++++++++++to 0.0860346
Heightened Def Con from 0.0860346 ++++++++++++++++++++++++++++++++++to 0.0860346
Heightened Def Con from 0.0860346 ++++++++++++++++++++++++++++++++++to 0.0860346
Heightened Def Con from 0.0860346 ++++++++++++++++++++++++++++++++++to 0.0860346
Heightened Def Con from 0.0860346 ++++++++++++++++++++++++++++++++++to 0.0860346
Heightened Def Con from 0.0860346 ++++++++++++++++++++++++++++++++++to 0.0860346
Heightened Def Con from 0.0860346 ++++++++++++++++++++++++++++++++++to 0.0860346
Heightened Def Con from 0.0860346 ++++++++++++++++++++++++++++++++++to 0.0860346
Heightened Def Con from 0.0860346 ++++++++++++++++++++++++++++++++++to 0.0860346
Heightened Def Con from 0.0860346 ++++++++++++++++++++++++++++++++++to 0.0860346
Heightened Def Con from 0.0860346 ++++++++++++++++++++++++++++++++++to 0.0860346
Heightened Def Con from 0.0860346 ++++++++++++++++++++++++++++++++++to 0.0860346
Heightened Def Con from 0.0860346 ++++++++++++++++++++++++++++++++++to 0.0860346
Heightened Def Con from 0.0860346 ++++++++++++++++++++++++++++++++++to 0.0860346
Heightened Def Con from 0.0860346 ++++++++++++++++++++++++++++++++++to 0.0860346
Heightened Def Con from 0.0860346 ++++++++++++++++++++++++++++++++++to 0.0860346
Heightened Def Con from 0.0860346 ++++++++++++++++++++++++++++++++++to 0.0860346
Heightened Def Con from 0.0860346 ++++++++++++++++++++++++++++++++++to 0.0860346
Heightened Def Con from 0.0860346 ++++++++++++++++++++++++++++++++++to 0.0860346
Heightened Def Con from 0.0860346 ++++++++++++++++++++++++++++++++++to 0.0860346
Heightened Def Con from 0.0860346 ++++++++++++++++++++++++++++++++++to 0.0860346
Heightened Def Con from 0.0860346 ++++++++++++++++++++++++++++++++++to 0.0860346
Heightened Def Con from 0.0860346 ++++++++++++++++++++++++++++++++++to 0.0860346
Heightened Def Con from 0.0860346 ++++++++++++++++++++++++++++++++++to 0.0860346
Heightened Def Con from 0.0860346 ++++++++++++++++++++++++++++++++++to 0.0860346
Heightened Def Con from 0.0860346 ++++++++++++++++++++++++++++++++++to 0.0860346
Heightened Def Con from 0.0860346 ++++++++++++++++++++++++++++++++++to 0.0860347
Heightened Def Con from 0.0860347 ++++++++++++++++++++++++++++++++++to 0.0860347
Heightened Def Con from 0.0860347 ++++++++++++++++++++++++++++++++++to 0.0860347
Heightened Def Con from 0.0860347 ++++++++++++++++++++++++++++++++++to 0.0860347
Heightened Def Con from 0.0860347 ++++++++++++++++++++++++++++++++++to 0.0860347
Heightened Def Con from 0.0860347 ++++++++++++++++++++++++++++++++++to 0.0860347
Heightened Def Con from 0.0860347 ++++++++++++++++++++++++++++++++++to 0.0860347
Heightened Def Con from 0.0860347 ++++++++++++++++++++++++++++++++++to 0.0860347
Heightened Def Con from 0.0860347 ++++++++++++++++++++++++++++++++++to 0.0860347
Heightened Def Con from 0.0860347 ++++++++++++++++++++++++++++++++++to 0.0860347
Heightened Def Con from 0.0860347 ++++++++++++++++++++++++++++++++++to 0.0860347
Heightened Def Con from 0.0860347 ++++++++++++++++++++++++++++++++++to 0.0860347
Heightened Def Con from 0.0860347 ++++++++++++++++++++++++++++++++++to 0.0860347
Heightened Def Con from 0.0860347 ++++++++++++++++++++++++++++++++++to 0.0860347
Heightened Def Con from 0.0860347 ++++++++++++++++++++++++++++++++++to 0.0860347
Heightened Def Con from 0.0860347 ++++++++++++++++++++++++++++++++++to 0.0860347
Heightened Def Con from 0.0860347 ++++++++++++++++++++++++++++++++++to 0.0860347
Heightened Def Con from 0.0860347 ++++++++++++++++++++++++++++++++++to 0.0860347
Heightened Def Con from 0.0860347 ++++++++++++++++++++++++++++++++++to 0.0860347
Heightened Def Con from 0.0860347 ++++++++++++++++++++++++++++++++++to 0.0860347
Heightened Def Con from 0.0860347 ++++++++++++++++++++++++++++++++++to 0.0860347
Heightened Def Con from 0.0860347 ++++++++++++++++++++++++++++++++++to 0.0860347
Heightened Def Con from 0.0860347 ++++++++++++++++++++++++++++++++++to 0.0860347
Heightened Def Con from 0.0860347 ++++++++++++++++++++++++++++++++++to 0.0860347
Heightened Def Con from 0.0860347 ++++++++++++++++++++++++++++++++++to 0.0860347
Heightened Def Con from 0.0860347 ++++++++++++++++++++++++++++++++++to 0.0860347
Heightened Def Con from 0.0860347 ++++++++++++++++++++++++++++++++++to 0.0860347
Heightened Def Con from 0.0860347 ++++++++++++++++++++++++++++++++++to 0.0860347
Heightened Def Con from 0.0860347 ++++++++++++++++++++++++++++++++++to 0.0860347
Heightened Def Con from 0.0860347 ++++++++++++++++++++++++++++++++++to 0.0860347
Heightened Def Con from 0.0860347 ++++++++++++++++++++++++++++++++++to 0.0860347
Heightened Def Con from 0.0860347 ++++++++++++++++++++++++++++++++++to 0.0860347
Heightened Def Con from 0.0860347 ++++++++++++++++++++++++++++++++++to 0.0860347
Heightened Def Con from 0.0860347 ++++++++++++++++++++++++++++++++++to 0.0860347
Heightened Def Con from 0.0860347 ++++++++++++++++++++++++++++++++++to 0.0860347
Heightened Def Con from 0.0860347 ++++++++++++++++++++++++++++++++++to 0.0860347
Heightened Def Con from 0.0860347 ++++++++++++++++++++++++++++++++++to 0.0860347
Heightened Def Con from 0.0860347 ++++++++++++++++++++++++++++++++++to 0.0860347
Heightened Def Con from 0.0860347 ++++++++++++++++++++++++++++++++++to 0.0860347
Heightened Def Con from 0.0860347 ++++++++++++++++++++++++++++++++++to 0.0860347
Heightened Def Con from 0.0860347 ++++++++++++++++++++++++++++++++++to 0.0860347
Heightened Def Con from 0.0860347 ++++++++++++++++++++++++++++++++++to 0.0860347
Heightened Def Con from 0.0860347 ++++++++++++++++++++++++++++++++++to 0.0860347
Heightened Def Con from 0.0860347 ++++++++++++++++++++++++++++++++++to 0.0860347
Heightened Def Con from 0.0860347 ++++++++++++++++++++++++++++++++++to 0.0860347
Heightened Def Con from 0.0860347 ++++++++++++++++++++++++++++++++++to 0.0860347
Heightened Def Con from 0.0860347 ++++++++++++++++++++++++++++++++++to 0.0860347
Heightened Def Con from 0.0860347 ++++++++++++++++++++++++++++++++++to 0.0860347
Heightened Def Con from 0.0860347 ++++++++++++++++++++++++++++++++++to 0.0860347
Heightened Def Con from 0.0860347 ++++++++++++++++++++++++++++++++++to 0.0860347
Heightened Def Con from 0.0860347 ++++++++++++++++++++++++++++++++++to 0.0860347
Heightened Def Con from 0.0860347 ++++++++++++++++++++++++++++++++++to 0.0860347
Heightened Def Con from 0.0860347 ++++++++++++++++++++++++++++++++++to 0.0860347
Heightened Def Con from 0.0860347 ++++++++++++++++++++++++++++++++++to 0.0860347
Heightened Def Con from 0.0860347 ++++++++++++++++++++++++++++++++++to 0.0860347
Heightened Def Con from 0.0860347 ++++++++++++++++++++++++++++++++++to 0.0860347
Heightened Def Con from 0.0860347 ++++++++++++++++++++++++++++++++++to 0.0860347
Heightened Def Con from 0.0860347 ++++++++++++++++++++++++++++++++++to 0.0860347
Heightened Def Con from 0.0860347 ++++++++++++++++++++++++++++++++++to 0.0860347
Heightened Def Con from 0.0860347 ++++++++++++++++++++++++++++++++++to 0.0860347
Heightened Def Con from 0.0860347 ++++++++++++++++++++++++++++++++++to 0.0860347
Heightened Def Con from 0.0860347 ++++++++++++++++++++++++++++++++++to 0.0860347
Heightened Def Con from 0.0860347 ++++++++++++++++++++++++++++++++++to 0.0860347
Heightened Def Con from 0.0860347 ++++++++++++++++++++++++++++++++++to 0.0860347
Heightened Def Con from 0.0860347 ++++++++++++++++++++++++++++++++++to 0.0860347
Heightened Def Con from 0.0860347 ++++++++++++++++++++++++++++++++++to 0.0860347
Heightened Def Con from 0.0860347 ++++++++++++++++++++++++++++++++++to 0.0860347
Heightened Def Con from 0.0860347 ++++++++++++++++++++++++++++++++++to 0.0860347
Heightened Def Con from 0.0860347 ++++++++++++++++++++++++++++++++++to 0.0860347
Heightened Def Con from 0.0860347 ++++++++++++++++++++++++++++++++++to 0.0860347
Heightened Def Con from 0.0860347 ++++++++++++++++++++++++++++++++++to 0.0860347
Heightened Def Con from 0.0860347 ++++++++++++++++++++++++++++++++++to 0.0860347
Heightened Def Con from 0.0860347 ++++++++++++++++++++++++++++++++++to 0.0860347
Heightened Def Con from 0.0860347 ++++++++++++++++++++++++++++++++++to 0.0860347
Heightened Def Con from 0.0860347 ++++++++++++++++++++++++++++++++++to 0.0860347
Heightened Def Con from 0.0860347 ++++++++++++++++++++++++++++++++++to 0.0860347
Heightened Def Con from 0.0860347 ++++++++++++++++++++++++++++++++++to 0.0860347
Heightened Def Con from 0.0860347 ++++++++++++++++++++++++++++++++++to 0.0860347
Heightened Def Con from 0.0860347 ++++++++++++++++++++++++++++++++++to 0.0860347
Heightened Def Con from 0.0860347 ++++++++++++++++++++++++++++++++++to 0.0860347
Heightened Def Con from 0.0860347 ++++++++++++++++++++++++++++++++++to 0.0860347
Heightened Def Con from 0.0860347 ++++++++++++++++++++++++++++++++++to 0.0860347
Heightened Def Con from 0.0860347 ++++++++++++++++++++++++++++++++++to 0.0860347
Heightened Def Con from 0.0860347 ++++++++++++++++++++++++++++++++++to 0.0860347
Heightened Def Con from 0.0860347 ++++++++++++++++++++++++++++++++++to 0.0860347
Heightened Def Con from 0.0860347 ++++++++++++++++++++++++++++++++++to 0.0860347
Heightened Def Con from 0.0860347 ++++++++++++++++++++++++++++++++++to 0.0860347
Heightened Def Con from 0.0860347 ++++++++++++++++++++++++++++++++++to 0.0860347
Heightened Def Con from 0.0860347 ++++++++++++++++++++++++++++++++++to 0.0860347
Heightened Def Con from 0.0860347 ++++++++++++++++++++++++++++++++++to 0.0860347
Heightened Def Con from 0.0860347 ++++++++++++++++++++++++++++++++++to 0.0860347
Heightened Def Con from 0.0860347 ++++++++++++++++++++++++++++++++++to 0.0860347
Heightened Def Con from 0.0860347 ++++++++++++++++++++++++++++++++++to 0.0860347
Heightened Def Con from 0.0860347 ++++++++++++++++++++++++++++++++++to 0.0860347
Heightened Def Con from 0.0860347 ++++++++++++++++++++++++++++++++++to 0.0860347
Heightened Def Con from 0.0860347 ++++++++++++++++++++++++++++++++++to 0.0860347
Heightened Def Con from 0.0860347 ++++++++++++++++++++++++++++++++++to 0.0860347
Heightened Def Con from 0.0860347 ++++++++++++++++++++++++++++++++++to 0.0860347
Heightened Def Con from 0.0860347 ++++++++++++++++++++++++++++++++++to 0.0860347
Heightened Def Con from 0.0860347 ++++++++++++++++++++++++++++++++++to 0.0860347
Heightened Def Con from 0.0860347 ++++++++++++++++++++++++++++++++++to 0.0860348
Heightened Def Con from 0.0860348 ++++++++++++++++++++++++++++++++++to 0.0860348
Heightened Def Con from 0.0860348 ++++++++++++++++++++++++++++++++++to 0.0860348
Heightened Def Con from 0.0860348 ++++++++++++++++++++++++++++++++++to 0.0860348
Heightened Def Con from 0.0860348 ++++++++++++++++++++++++++++++++++to 0.0860348
Heightened Def Con from 0.0860348 ++++++++++++++++++++++++++++++++++to 0.0860348
Heightened Def Con from 0.0860348 ++++++++++++++++++++++++++++++++++to 0.0860348
Heightened Def Con from 0.0860348 ++++++++++++++++++++++++++++++++++to 0.0860348
Heightened Def Con from 0.0860348 ++++++++++++++++++++++++++++++++++to 0.0860348
Heightened Def Con from 0.0860348 ++++++++++++++++++++++++++++++++++to 0.0860348
Heightened Def Con from 0.0860348 ++++++++++++++++++++++++++++++++++to 0.0860348
Heightened Def Con from 0.0860348 ++++++++++++++++++++++++++++++++++to 0.0860348
Heightened Def Con from 0.0860348 ++++++++++++++++++++++++++++++++++to 0.0860348
Heightened Def Con from 0.0860348 ++++++++++++++++++++++++++++++++++to 0.0860348
Heightened Def Con from 0.0860348 ++++++++++++++++++++++++++++++++++to 0.0860348
Heightened Def Con from 0.0860348 ++++++++++++++++++++++++++++++++++to 0.0860348
Heightened Def Con from 0.0860348 ++++++++++++++++++++++++++++++++++to 0.0860348
Heightened Def Con from 0.0860348 ++++++++++++++++++++++++++++++++++to 0.0860348
Heightened Def Con from 0.0860348 ++++++++++++++++++++++++++++++++++to 0.0860348
Heightened Def Con from 0.0860348 ++++++++++++++++++++++++++++++++++to 0.0860348
Heightened Def Con from 0.0860348 ++++++++++++++++++++++++++++++++++to 0.0860348
Heightened Def Con from 0.0860348 ++++++++++++++++++++++++++++++++++to 0.0860348
Heightened Def Con from 0.0860348 ++++++++++++++++++++++++++++++++++to 0.0860348
Heightened Def Con from 0.0860348 ++++++++++++++++++++++++++++++++++to 0.0860348
Heightened Def Con from 0.0860348 ++++++++++++++++++++++++++++++++++to 0.0860348
Heightened Def Con from 0.0860348 ++++++++++++++++++++++++++++++++++to 0.0860348
Heightened Def Con from 0.0860348 ++++++++++++++++++++++++++++++++++to 0.0860348
Heightened Def Con from 0.0860348 ++++++++++++++++++++++++++++++++++to 0.0860348
Heightened Def Con from 0.0860348 ++++++++++++++++++++++++++++++++++to 0.0860348
Heightened Def Con from 0.0860348 ++++++++++++++++++++++++++++++++++to 0.0860348
Heightened Def Con from 0.0860348 ++++++++++++++++++++++++++++++++++to 0.0860348
Heightened Def Con from 0.0860348 ++++++++++++++++++++++++++++++++++to 0.0860348
Heightened Def Con from 0.0860348 ++++++++++++++++++++++++++++++++++to 0.0860348
Heightened Def Con from 0.0860348 ++++++++++++++++++++++++++++++++++to 0.0860348
Heightened Def Con from 0.0860348 ++++++++++++++++++++++++++++++++++to 0.0860348
Heightened Def Con from 0.0860348 ++++++++++++++++++++++++++++++++++to 0.0860348
Heightened Def Con from 0.0860348 ++++++++++++++++++++++++++++++++++to 0.0860348
Heightened Def Con from 0.0860348 ++++++++++++++++++++++++++++++++++to 0.0860348
Heightened Def Con from 0.0860348 ++++++++++++++++++++++++++++++++++to 0.0860348
Heightened Def Con from 0.0860348 ++++++++++++++++++++++++++++++++++to 0.0860348
Heightened Def Con from 0.0860348 ++++++++++++++++++++++++++++++++++to 0.0860348
Heightened Def Con from 0.0860348 ++++++++++++++++++++++++++++++++++to 0.0860348
Heightened Def Con from 0.0860348 ++++++++++++++++++++++++++++++++++to 0.0860348
Heightened Def Con from 0.0860348 ++++++++++++++++++++++++++++++++++to 0.0860348
Heightened Def Con from 0.0860348 ++++++++++++++++++++++++++++++++++to 0.0860348
Heightened Def Con from 0.0860348 ++++++++++++++++++++++++++++++++++to 0.0860348
Heightened Def Con from 0.0860348 ++++++++++++++++++++++++++++++++++to 0.0860348
Heightened Def Con from 0.0860348 ++++++++++++++++++++++++++++++++++to 0.0860348
Heightened Def Con from 0.0860348 ++++++++++++++++++++++++++++++++++to 0.0860348
Heightened Def Con from 0.0860348 ++++++++++++++++++++++++++++++++++to 0.0860348
Heightened Def Con from 0.0860348 ++++++++++++++++++++++++++++++++++to 0.0860348
Heightened Def Con from 0.0860348 ++++++++++++++++++++++++++++++++++to 0.0860348
Heightened Def Con from 0.0860348 ++++++++++++++++++++++++++++++++++to 0.0860348
Heightened Def Con from 0.0860348 ++++++++++++++++++++++++++++++++++to 0.0860348
Heightened Def Con from 0.0860348 ++++++++++++++++++++++++++++++++++to 0.0860348
Heightened Def Con from 0.0860348 ++++++++++++++++++++++++++++++++++to 0.0860348
Heightened Def Con from 0.0860348 ++++++++++++++++++++++++++++++++++to 0.0860348
Heightened Def Con from 0.0860348 ++++++++++++++++++++++++++++++++++to 0.0860348
Heightened Def Con from 0.0860348 ++++++++++++++++++++++++++++++++++to 0.0860348
Heightened Def Con from 0.0860348 ++++++++++++++++++++++++++++++++++to 0.0860348
Heightened Def Con from 0.0860348 ++++++++++++++++++++++++++++++++++to 0.0860348
Heightened Def Con from 0.0860348 ++++++++++++++++++++++++++++++++++to 0.0860348
Heightened Def Con from 0.0860348 ++++++++++++++++++++++++++++++++++to 0.0860348
Heightened Def Con from 0.0860348 ++++++++++++++++++++++++++++++++++to 0.0860348
Heightened Def Con from 0.0860348 ++++++++++++++++++++++++++++++++++to 0.0860348
Heightened Def Con from 0.0860348 ++++++++++++++++++++++++++++++++++to 0.0860348
Heightened Def Con from 0.0860348 ++++++++++++++++++++++++++++++++++to 0.0860348
Heightened Def Con from 0.0860348 ++++++++++++++++++++++++++++++++++to 0.0860348
Heightened Def Con from 0.0860348 ++++++++++++++++++++++++++++++++++to 0.0860348
Heightened Def Con from 0.0860348 ++++++++++++++++++++++++++++++++++to 0.0860348
Heightened Def Con from 0.0860348 ++++++++++++++++++++++++++++++++++to 0.0860348
Heightened Def Con from 0.0860348 ++++++++++++++++++++++++++++++++++to 0.0860348
Heightened Def Con from 0.0860348 ++++++++++++++++++++++++++++++++++to 0.0860348
Heightened Def Con from 0.0860348 ++++++++++++++++++++++++++++++++++to 0.0860348
Heightened Def Con from 0.0860348 ++++++++++++++++++++++++++++++++++to 0.0860348
Heightened Def Con from 0.0860348 ++++++++++++++++++++++++++++++++++to 0.0860348
Heightened Def Con from 0.0860348 ++++++++++++++++++++++++++++++++++to 0.0860348
Heightened Def Con from 0.0860348 ++++++++++++++++++++++++++++++++++to 0.0860348
Heightened Def Con from 0.0860348 ++++++++++++++++++++++++++++++++++to 0.0860348
Heightened Def Con from 0.0860348 ++++++++++++++++++++++++++++++++++to 0.0860348
Heightened Def Con from 0.0860348 ++++++++++++++++++++++++++++++++++to 0.0860348
Heightened Def Con from 0.0860348 ++++++++++++++++++++++++++++++++++to 0.0860348
Heightened Def Con from 0.0860348 ++++++++++++++++++++++++++++++++++to 0.0860348
Heightened Def Con from 0.0860348 ++++++++++++++++++++++++++++++++++to 0.0860348
Heightened Def Con from 0.0860348 ++++++++++++++++++++++++++++++++++to 0.0860348
Heightened Def Con from 0.0860348 ++++++++++++++++++++++++++++++++++to 0.0860348
Heightened Def Con from 0.0860348 ++++++++++++++++++++++++++++++++++to 0.0860348
Heightened Def Con from 0.0860348 ++++++++++++++++++++++++++++++++++to 0.0860348
Heightened Def Con from 0.0860348 ++++++++++++++++++++++++++++++++++to 0.0860348
Heightened Def Con from 0.0860348 ++++++++++++++++++++++++++++++++++to 0.0860348
Heightened Def Con from 0.0860348 ++++++++++++++++++++++++++++++++++to 0.0860348
Heightened Def Con from 0.0860348 ++++++++++++++++++++++++++++++++++to 0.0860348
Heightened Def Con from 0.0860348 ++++++++++++++++++++++++++++++++++to 0.0860348
Heightened Def Con from 0.0860348 ++++++++++++++++++++++++++++++++++to 0.0860348
Heightened Def Con from 0.0860348 ++++++++++++++++++++++++++++++++++to 0.0860348
Heightened Def Con from 0.0860348 ++++++++++++++++++++++++++++++++++to 0.0860348
Heightened Def Con from 0.0860348 ++++++++++++++++++++++++++++++++++to 0.0860348
Heightened Def Con from 0.0860348 ++++++++++++++++++++++++++++++++++to 0.0860348
Heightened Def Con from 0.0860348 ++++++++++++++++++++++++++++++++++to 0.0860348
Heightened Def Con from 0.0860348 ++++++++++++++++++++++++++++++++++to 0.0860348
Heightened Def Con from 0.0860348 ++++++++++++++++++++++++++++++++++to 0.0860349
Heightened Def Con from 0.0860349 ++++++++++++++++++++++++++++++++++to 0.0860349
Heightened Def Con from 0.0860349 ++++++++++++++++++++++++++++++++++to 0.0860349
Heightened Def Con from 0.0860349 ++++++++++++++++++++++++++++++++++to 0.0860349
Heightened Def Con from 0.0860349 ++++++++++++++++++++++++++++++++++to 0.0860349
Heightened Def Con from 0.0860349 ++++++++++++++++++++++++++++++++++to 0.0860349
Heightened Def Con from 0.0860349 ++++++++++++++++++++++++++++++++++to 0.0860349
Heightened Def Con from 0.0860349 ++++++++++++++++++++++++++++++++++to 0.0860349
Heightened Def Con from 0.0860349 ++++++++++++++++++++++++++++++++++to 0.0860349
Heightened Def Con from 0.0860349 ++++++++++++++++++++++++++++++++++to 0.0860349
Heightened Def Con from 0.0860349 ++++++++++++++++++++++++++++++++++to 0.0860349
Heightened Def Con from 0.0860349 ++++++++++++++++++++++++++++++++++to 0.0860349
Heightened Def Con from 0.0860349 ++++++++++++++++++++++++++++++++++to 0.0860349
Heightened Def Con from 0.0860349 ++++++++++++++++++++++++++++++++++to 0.0860349
Heightened Def Con from 0.0860349 ++++++++++++++++++++++++++++++++++to 0.0860349
Heightened Def Con from 0.0860349 ++++++++++++++++++++++++++++++++++to 0.0860349
Heightened Def Con from 0.0860349 ++++++++++++++++++++++++++++++++++to 0.0860349
Heightened Def Con from 0.0860349 ++++++++++++++++++++++++++++++++++to 0.0860349
Heightened Def Con from 0.0860349 ++++++++++++++++++++++++++++++++++to 0.0860349
Heightened Def Con from 0.0860349 ++++++++++++++++++++++++++++++++++to 0.0860349
Heightened Def Con from 0.0860349 ++++++++++++++++++++++++++++++++++to 0.0860349
Heightened Def Con from 0.0860349 ++++++++++++++++++++++++++++++++++to 0.0860349
Heightened Def Con from 0.0860349 ++++++++++++++++++++++++++++++++++to 0.0860349
Heightened Def Con from 0.0860349 ++++++++++++++++++++++++++++++++++to 0.0860349
Heightened Def Con from 0.0860349 ++++++++++++++++++++++++++++++++++to 0.0860349
Heightened Def Con from 0.0860349 ++++++++++++++++++++++++++++++++++to 0.0860349
Heightened Def Con from 0.0860349 ++++++++++++++++++++++++++++++++++to 0.0860349
Heightened Def Con from 0.0860349 ++++++++++++++++++++++++++++++++++to 0.0860349
Heightened Def Con from 0.0860349 ++++++++++++++++++++++++++++++++++to 0.0860349
Heightened Def Con from 0.0860349 ++++++++++++++++++++++++++++++++++to 0.0860349
Heightened Def Con from 0.0860349 ++++++++++++++++++++++++++++++++++to 0.0860349
Heightened Def Con from 0.0860349 ++++++++++++++++++++++++++++++++++to 0.0860349
Heightened Def Con from 0.0860349 ++++++++++++++++++++++++++++++++++to 0.0860349
Heightened Def Con from 0.0860349 ++++++++++++++++++++++++++++++++++to 0.0860349
Heightened Def Con from 0.0860349 ++++++++++++++++++++++++++++++++++to 0.0860349
Heightened Def Con from 0.0860349 ++++++++++++++++++++++++++++++++++to 0.0860349
Heightened Def Con from 0.0860349 ++++++++++++++++++++++++++++++++++to 0.0860349
Heightened Def Con from 0.0860349 ++++++++++++++++++++++++++++++++++to 0.0860349
Heightened Def Con from 0.0860349 ++++++++++++++++++++++++++++++++++to 0.0860349
Heightened Def Con from 0.0860349 ++++++++++++++++++++++++++++++++++to 0.0860349
Heightened Def Con from 0.0860349 ++++++++++++++++++++++++++++++++++to 0.0860349
Heightened Def Con from 0.0860349 ++++++++++++++++++++++++++++++++++to 0.0860349
Heightened Def Con from 0.0860349 ++++++++++++++++++++++++++++++++++to 0.0860349
Heightened Def Con from 0.0860349 ++++++++++++++++++++++++++++++++++to 0.0860349
Heightened Def Con from 0.0860349 ++++++++++++++++++++++++++++++++++to 0.0860349
Heightened Def Con from 0.0860349 ++++++++++++++++++++++++++++++++++to 0.0860349
Heightened Def Con from 0.0860349 ++++++++++++++++++++++++++++++++++to 0.0860349
Heightened Def Con from 0.0860349 ++++++++++++++++++++++++++++++++++to 0.0860349
Heightened Def Con from 0.0860349 ++++++++++++++++++++++++++++++++++to 0.0860349
Heightened Def Con from 0.0860349 ++++++++++++++++++++++++++++++++++to 0.0860349
Heightened Def Con from 0.0860349 ++++++++++++++++++++++++++++++++++to 0.0860349
Heightened Def Con from 0.0860349 ++++++++++++++++++++++++++++++++++to 0.0860349
Heightened Def Con from 0.0860349 ++++++++++++++++++++++++++++++++++to 0.0860349
Heightened Def Con from 0.0860349 ++++++++++++++++++++++++++++++++++to 0.0860349
Heightened Def Con from 0.0860349 ++++++++++++++++++++++++++++++++++to 0.0860349
Heightened Def Con from 0.0860349 ++++++++++++++++++++++++++++++++++to 0.0860349
Heightened Def Con from 0.0860349 ++++++++++++++++++++++++++++++++++to 0.0860349
Heightened Def Con from 0.0860349 ++++++++++++++++++++++++++++++++++to 0.0860349
Heightened Def Con from 0.0860349 ++++++++++++++++++++++++++++++++++to 0.0860349
Heightened Def Con from 0.0860349 ++++++++++++++++++++++++++++++++++to 0.0860349
Heightened Def Con from 0.0860349 ++++++++++++++++++++++++++++++++++to 0.0860349
Heightened Def Con from 0.0860349 ++++++++++++++++++++++++++++++++++to 0.0860349
Heightened Def Con from 0.0860349 ++++++++++++++++++++++++++++++++++to 0.0860349
Heightened Def Con from 0.0860349 ++++++++++++++++++++++++++++++++++to 0.0860349
Heightened Def Con from 0.0860349 ++++++++++++++++++++++++++++++++++to 0.0860349
Heightened Def Con from 0.0860349 ++++++++++++++++++++++++++++++++++to 0.0860349
Heightened Def Con from 0.0860349 ++++++++++++++++++++++++++++++++++to 0.0860349
Heightened Def Con from 0.0860349 ++++++++++++++++++++++++++++++++++to 0.0860349
Heightened Def Con from 0.0860349 ++++++++++++++++++++++++++++++++++to 0.0860349
Heightened Def Con from 0.0860349 ++++++++++++++++++++++++++++++++++to 0.0860349
Heightened Def Con from 0.0860349 ++++++++++++++++++++++++++++++++++to 0.0860349
Heightened Def Con from 0.0860349 ++++++++++++++++++++++++++++++++++to 0.0860349
Heightened Def Con from 0.0860349 ++++++++++++++++++++++++++++++++++to 0.0860349
Heightened Def Con from 0.0860349 ++++++++++++++++++++++++++++++++++to 0.0860349
Heightened Def Con from 0.0860349 ++++++++++++++++++++++++++++++++++to 0.0860349
Heightened Def Con from 0.0860349 ++++++++++++++++++++++++++++++++++to 0.0860349
Heightened Def Con from 0.0860349 ++++++++++++++++++++++++++++++++++to 0.0860349
Heightened Def Con from 0.0860349 ++++++++++++++++++++++++++++++++++to 0.0860349
Heightened Def Con from 0.0860349 ++++++++++++++++++++++++++++++++++to 0.0860349
Heightened Def Con from 0.0860349 ++++++++++++++++++++++++++++++++++to 0.0860349
Heightened Def Con from 0.0860349 ++++++++++++++++++++++++++++++++++to 0.0860349
Heightened Def Con from 0.0860349 ++++++++++++++++++++++++++++++++++to 0.0860349
Heightened Def Con from 0.0860349 ++++++++++++++++++++++++++++++++++to 0.0860349
Heightened Def Con from 0.0860349 ++++++++++++++++++++++++++++++++++to 0.0860349
Heightened Def Con from 0.0860349 ++++++++++++++++++++++++++++++++++to 0.0860349
Heightened Def Con from 0.0860349 ++++++++++++++++++++++++++++++++++to 0.0860349
Heightened Def Con from 0.0860349 ++++++++++++++++++++++++++++++++++to 0.0860349
Heightened Def Con from 0.0860349 ++++++++++++++++++++++++++++++++++to 0.0860349
Heightened Def Con from 0.0860349 ++++++++++++++++++++++++++++++++++to 0.0860349
Heightened Def Con from 0.0860349 ++++++++++++++++++++++++++++++++++to 0.0860349
Heightened Def Con from 0.0860349 ++++++++++++++++++++++++++++++++++to 0.0860349
Heightened Def Con from 0.0860349 ++++++++++++++++++++++++++++++++++to 0.0860349
Heightened Def Con from 0.0860349 ++++++++++++++++++++++++++++++++++to 0.0860349
Heightened Def Con from 0.0860349 ++++++++++++++++++++++++++++++++++to 0.0860349
Heightened Def Con from 0.0860349 ++++++++++++++++++++++++++++++++++to 0.0860349
Heightened Def Con from 0.0860349 ++++++++++++++++++++++++++++++++++to 0.0860349
Heightened Def Con from 0.0860349 ++++++++++++++++++++++++++++++++++to 0.0860349
Heightened Def Con from 0.0860349 ++++++++++++++++++++++++++++++++++to 0.0860349
Heightened Def Con from 0.0860349 ++++++++++++++++++++++++++++++++++to 0.0860349
Heightened Def Con from 0.0860349 ++++++++++++++++++++++++++++++++++to 0.0860349
Heightened Def Con from 0.0860349 ++++++++++++++++++++++++++++++++++to 0.086035
Heightened Def Con from 0.086035 ++++++++++++++++++++++++++++++++++to 0.086035
Heightened Def Con from 0.086035 ++++++++++++++++++++++++++++++++++to 0.086035
Heightened Def Con from 0.086035 ++++++++++++++++++++++++++++++++++to 0.086035
Heightened Def Con from 0.086035 ++++++++++++++++++++++++++++++++++to 0.086035
Heightened Def Con from 0.086035 ++++++++++++++++++++++++++++++++++to 0.086035
Heightened Def Con from 0.086035 ++++++++++++++++++++++++++++++++++to 0.086035
Heightened Def Con from 0.086035 ++++++++++++++++++++++++++++++++++to 0.086035
Heightened Def Con from 0.086035 ++++++++++++++++++++++++++++++++++to 0.086035
Heightened Def Con from 0.086035 ++++++++++++++++++++++++++++++++++to 0.086035
Heightened Def Con from 0.086035 ++++++++++++++++++++++++++++++++++to 0.086035
Heightened Def Con from 0.086035 ++++++++++++++++++++++++++++++++++to 0.086035
Heightened Def Con from 0.086035 ++++++++++++++++++++++++++++++++++to 0.086035
Heightened Def Con from 0.086035 ++++++++++++++++++++++++++++++++++to 0.086035
Heightened Def Con from 0.086035 ++++++++++++++++++++++++++++++++++to 0.086035
Heightened Def Con from 0.086035 ++++++++++++++++++++++++++++++++++to 0.086035
Heightened Def Con from 0.086035 ++++++++++++++++++++++++++++++++++to 0.086035
Heightened Def Con from 0.086035 ++++++++++++++++++++++++++++++++++to 0.086035
Heightened Def Con from 0.086035 ++++++++++++++++++++++++++++++++++to 0.086035
Heightened Def Con from 0.086035 ++++++++++++++++++++++++++++++++++to 0.086035
Heightened Def Con from 0.086035 ++++++++++++++++++++++++++++++++++to 0.086035
Heightened Def Con from 0.086035 ++++++++++++++++++++++++++++++++++to 0.086035
Heightened Def Con from 0.086035 ++++++++++++++++++++++++++++++++++to 0.086035
Heightened Def Con from 0.086035 ++++++++++++++++++++++++++++++++++to 0.086035
Heightened Def Con from 0.086035 ++++++++++++++++++++++++++++++++++to 0.086035
Heightened Def Con from 0.086035 ++++++++++++++++++++++++++++++++++to 0.086035
Heightened Def Con from 0.086035 ++++++++++++++++++++++++++++++++++to 0.086035
Heightened Def Con from 0.086035 ++++++++++++++++++++++++++++++++++to 0.086035
Heightened Def Con from 0.086035 ++++++++++++++++++++++++++++++++++to 0.086035
Heightened Def Con from 0.086035 ++++++++++++++++++++++++++++++++++to 0.086035
Heightened Def Con from 0.086035 ++++++++++++++++++++++++++++++++++to 0.086035
Heightened Def Con from 0.086035 ++++++++++++++++++++++++++++++++++to 0.086035
Heightened Def Con from 0.086035 ++++++++++++++++++++++++++++++++++to 0.086035
Heightened Def Con from 0.086035 ++++++++++++++++++++++++++++++++++to 0.086035
Heightened Def Con from 0.086035 ++++++++++++++++++++++++++++++++++to 0.086035
Heightened Def Con from 0.086035 ++++++++++++++++++++++++++++++++++to 0.086035
Heightened Def Con from 0.086035 ++++++++++++++++++++++++++++++++++to 0.086035
Heightened Def Con from 0.086035 ++++++++++++++++++++++++++++++++++to 0.086035
Heightened Def Con from 0.086035 ++++++++++++++++++++++++++++++++++to 0.086035
Heightened Def Con from 0.086035 ++++++++++++++++++++++++++++++++++to 0.086035
Heightened Def Con from 0.086035 ++++++++++++++++++++++++++++++++++to 0.086035
Heightened Def Con from 0.086035 ++++++++++++++++++++++++++++++++++to 0.086035
Heightened Def Con from 0.086035 ++++++++++++++++++++++++++++++++++to 0.086035
Heightened Def Con from 0.086035 ++++++++++++++++++++++++++++++++++to 0.086035
Heightened Def Con from 0.086035 ++++++++++++++++++++++++++++++++++to 0.086035
Heightened Def Con from 0.086035 ++++++++++++++++++++++++++++++++++to 0.086035
Heightened Def Con from 0.086035 ++++++++++++++++++++++++++++++++++to 0.086035
Heightened Def Con from 0.086035 ++++++++++++++++++++++++++++++++++to 0.086035
Heightened Def Con from 0.086035 ++++++++++++++++++++++++++++++++++to 0.086035
Heightened Def Con from 0.086035 ++++++++++++++++++++++++++++++++++to 0.086035
Heightened Def Con from 0.086035 ++++++++++++++++++++++++++++++++++to 0.086035
Heightened Def Con from 0.086035 ++++++++++++++++++++++++++++++++++to 0.086035
Heightened Def Con from 0.086035 ++++++++++++++++++++++++++++++++++to 0.086035
Heightened Def Con from 0.086035 ++++++++++++++++++++++++++++++++++to 0.086035
Heightened Def Con from 0.086035 ++++++++++++++++++++++++++++++++++to 0.086035
Heightened Def Con from 0.086035 ++++++++++++++++++++++++++++++++++to 0.086035
Heightened Def Con from 0.086035 ++++++++++++++++++++++++++++++++++to 0.086035
Heightened Def Con from 0.086035 ++++++++++++++++++++++++++++++++++to 0.086035
Heightened Def Con from 0.086035 ++++++++++++++++++++++++++++++++++to 0.086035
Heightened Def Con from 0.086035 ++++++++++++++++++++++++++++++++++to 0.086035
Heightened Def Con from 0.086035 ++++++++++++++++++++++++++++++++++to 0.086035
Heightened Def Con from 0.086035 ++++++++++++++++++++++++++++++++++to 0.086035
Heightened Def Con from 0.086035 ++++++++++++++++++++++++++++++++++to 0.086035
Heightened Def Con from 0.086035 ++++++++++++++++++++++++++++++++++to 0.086035
Heightened Def Con from 0.086035 ++++++++++++++++++++++++++++++++++to 0.086035
Heightened Def Con from 0.086035 ++++++++++++++++++++++++++++++++++to 0.086035
Heightened Def Con from 0.086035 ++++++++++++++++++++++++++++++++++to 0.086035
Heightened Def Con from 0.086035 ++++++++++++++++++++++++++++++++++to 0.086035
Heightened Def Con from 0.086035 ++++++++++++++++++++++++++++++++++to 0.086035
Heightened Def Con from 0.086035 ++++++++++++++++++++++++++++++++++to 0.086035
Heightened Def Con from 0.086035 ++++++++++++++++++++++++++++++++++to 0.086035
Heightened Def Con from 0.086035 ++++++++++++++++++++++++++++++++++to 0.086035
Heightened Def Con from 0.086035 ++++++++++++++++++++++++++++++++++to 0.086035
Heightened Def Con from 0.086035 ++++++++++++++++++++++++++++++++++to 0.086035
Heightened Def Con from 0.086035 ++++++++++++++++++++++++++++++++++to 0.086035
Heightened Def Con from 0.086035 ++++++++++++++++++++++++++++++++++to 0.086035
Heightened Def Con from 0.086035 ++++++++++++++++++++++++++++++++++to 0.086035
Heightened Def Con from 0.086035 ++++++++++++++++++++++++++++++++++to 0.086035
Heightened Def Con from 0.086035 ++++++++++++++++++++++++++++++++++to 0.086035
Heightened Def Con from 0.086035 ++++++++++++++++++++++++++++++++++to 0.086035
Heightened Def Con from 0.086035 ++++++++++++++++++++++++++++++++++to 0.086035
Heightened Def Con from 0.086035 ++++++++++++++++++++++++++++++++++to 0.086035
Heightened Def Con from 0.086035 ++++++++++++++++++++++++++++++++++to 0.086035
Heightened Def Con from 0.086035 ++++++++++++++++++++++++++++++++++to 0.086035
Heightened Def Con from 0.086035 ++++++++++++++++++++++++++++++++++to 0.086035
Heightened Def Con from 0.086035 ++++++++++++++++++++++++++++++++++to 0.086035
Heightened Def Con from 0.086035 ++++++++++++++++++++++++++++++++++to 0.086035
Heightened Def Con from 0.086035 ++++++++++++++++++++++++++++++++++to 0.086035
Heightened Def Con from 0.086035 ++++++++++++++++++++++++++++++++++to 0.086035
Heightened Def Con from 0.086035 ++++++++++++++++++++++++++++++++++to 0.086035
Heightened Def Con from 0.086035 ++++++++++++++++++++++++++++++++++to 0.086035
Heightened Def Con from 0.086035 ++++++++++++++++++++++++++++++++++to 0.086035
Heightened Def Con from 0.086035 ++++++++++++++++++++++++++++++++++to 0.086035
Heightened Def Con from 0.086035 ++++++++++++++++++++++++++++++++++to 0.086035
Heightened Def Con from 0.086035 ++++++++++++++++++++++++++++++++++to 0.086035
Heightened Def Con from 0.086035 ++++++++++++++++++++++++++++++++++to 0.086035
Heightened Def Con from 0.086035 ++++++++++++++++++++++++++++++++++to 0.086035
Heightened Def Con from 0.086035 ++++++++++++++++++++++++++++++++++to 0.086035
Heightened Def Con from 0.086035 ++++++++++++++++++++++++++++++++++to 0.086035
Heightened Def Con from 0.086035 ++++++++++++++++++++++++++++++++++to 0.086035
Heightened Def Con from 0.086035 ++++++++++++++++++++++++++++++++++to 0.0860351
Heightened Def Con from 0.0860351 ++++++++++++++++++++++++++++++++++to 0.0860351
Heightened Def Con from 0.0860351 ++++++++++++++++++++++++++++++++++to 0.0860351
Heightened Def Con from 0.0860351 ++++++++++++++++++++++++++++++++++to 0.0860351
Heightened Def Con from 0.0860351 ++++++++++++++++++++++++++++++++++to 0.0860351
Heightened Def Con from 0.0860351 ++++++++++++++++++++++++++++++++++to 0.0860351
Heightened Def Con from 0.0860351 ++++++++++++++++++++++++++++++++++to 0.0860351
Heightened Def Con from 0.0860351 ++++++++++++++++++++++++++++++++++to 0.0860351
Heightened Def Con from 0.0860351 ++++++++++++++++++++++++++++++++++to 0.0860351
Heightened Def Con from 0.0860351 ++++++++++++++++++++++++++++++++++to 0.0860351
Heightened Def Con from 0.0860351 ++++++++++++++++++++++++++++++++++to 0.0860351
Heightened Def Con from 0.0860351 ++++++++++++++++++++++++++++++++++to 0.0860351
Heightened Def Con from 0.0860351 ++++++++++++++++++++++++++++++++++to 0.0860351
Heightened Def Con from 0.0860351 ++++++++++++++++++++++++++++++++++to 0.0860351
Heightened Def Con from 0.0860351 ++++++++++++++++++++++++++++++++++to 0.0860351
Heightened Def Con from 0.0860351 ++++++++++++++++++++++++++++++++++to 0.0860351
Heightened Def Con from 0.0860351 ++++++++++++++++++++++++++++++++++to 0.0860351
Heightened Def Con from 0.0860351 ++++++++++++++++++++++++++++++++++to 0.0860351
Heightened Def Con from 0.0860351 ++++++++++++++++++++++++++++++++++to 0.0860351
Heightened Def Con from 0.0860351 ++++++++++++++++++++++++++++++++++to 0.0860351
Heightened Def Con from 0.0860351 ++++++++++++++++++++++++++++++++++to 0.0860351
Heightened Def Con from 0.0860351 ++++++++++++++++++++++++++++++++++to 0.0860351
Heightened Def Con from 0.0860351 ++++++++++++++++++++++++++++++++++to 0.0860351
Heightened Def Con from 0.0860351 ++++++++++++++++++++++++++++++++++to 0.0860351
Heightened Def Con from 0.0860351 ++++++++++++++++++++++++++++++++++to 0.0860351
Heightened Def Con from 0.0860351 ++++++++++++++++++++++++++++++++++to 0.0860351
Heightened Def Con from 0.0860351 ++++++++++++++++++++++++++++++++++to 0.0860351
Heightened Def Con from 0.0860351 ++++++++++++++++++++++++++++++++++to 0.0860351
Heightened Def Con from 0.0860351 ++++++++++++++++++++++++++++++++++to 0.0860351
Heightened Def Con from 0.0860351 ++++++++++++++++++++++++++++++++++to 0.0860351
Heightened Def Con from 0.0860351 ++++++++++++++++++++++++++++++++++to 0.0860351
Heightened Def Con from 0.0860351 ++++++++++++++++++++++++++++++++++to 0.0860351
Heightened Def Con from 0.0860351 ++++++++++++++++++++++++++++++++++to 0.0860351
Heightened Def Con from 0.0860351 ++++++++++++++++++++++++++++++++++to 0.0860351
Heightened Def Con from 0.0860351 ++++++++++++++++++++++++++++++++++to 0.0860351
Heightened Def Con from 0.0860351 ++++++++++++++++++++++++++++++++++to 0.0860351
Heightened Def Con from 0.0860351 ++++++++++++++++++++++++++++++++++to 0.0860351
Heightened Def Con from 0.0860351 ++++++++++++++++++++++++++++++++++to 0.0860351
Heightened Def Con from 0.0860351 ++++++++++++++++++++++++++++++++++to 0.0860351
Heightened Def Con from 0.0860351 ++++++++++++++++++++++++++++++++++to 0.0860351
Heightened Def Con from 0.0860351 ++++++++++++++++++++++++++++++++++to 0.0860351
Heightened Def Con from 0.0860351 ++++++++++++++++++++++++++++++++++to 0.0860351
Heightened Def Con from 0.0860351 ++++++++++++++++++++++++++++++++++to 0.0860351
Heightened Def Con from 0.0860351 ++++++++++++++++++++++++++++++++++to 0.0860351
Heightened Def Con from 0.0860351 ++++++++++++++++++++++++++++++++++to 0.0860351
Heightened Def Con from 0.0860351 ++++++++++++++++++++++++++++++++++to 0.0860351
Heightened Def Con from 0.0860351 ++++++++++++++++++++++++++++++++++to 0.0860351
Heightened Def Con from 0.0860351 ++++++++++++++++++++++++++++++++++to 0.0860351
Heightened Def Con from 0.0860351 ++++++++++++++++++++++++++++++++++to 0.0860351
Heightened Def Con from 0.0860351 ++++++++++++++++++++++++++++++++++to 0.0860351
Heightened Def Con from 0.0860351 ++++++++++++++++++++++++++++++++++to 0.0860351
Heightened Def Con from 0.0860351 ++++++++++++++++++++++++++++++++++to 0.0860351
Heightened Def Con from 0.0860351 ++++++++++++++++++++++++++++++++++to 0.0860351
Heightened Def Con from 0.0860351 ++++++++++++++++++++++++++++++++++to 0.0860351
Heightened Def Con from 0.0860351 ++++++++++++++++++++++++++++++++++to 0.0860351
Heightened Def Con from 0.0860351 ++++++++++++++++++++++++++++++++++to 0.0860351
Heightened Def Con from 0.0860351 ++++++++++++++++++++++++++++++++++to 0.0860351
Heightened Def Con from 0.0860351 ++++++++++++++++++++++++++++++++++to 0.0860351
Heightened Def Con from 0.0860351 ++++++++++++++++++++++++++++++++++to 0.0860351
Heightened Def Con from 0.0860351 ++++++++++++++++++++++++++++++++++to 0.0860351
Heightened Def Con from 0.0860351 ++++++++++++++++++++++++++++++++++to 0.0860351
Heightened Def Con from 0.0860351 ++++++++++++++++++++++++++++++++++to 0.0860351
Heightened Def Con from 0.0860351 ++++++++++++++++++++++++++++++++++to 0.0860351
Heightened Def Con from 0.0860351 ++++++++++++++++++++++++++++++++++to 0.0860351
Heightened Def Con from 0.0860351 ++++++++++++++++++++++++++++++++++to 0.0860351
Heightened Def Con from 0.0860351 ++++++++++++++++++++++++++++++++++to 0.0860351
Heightened Def Con from 0.0860351 ++++++++++++++++++++++++++++++++++to 0.0860351
Heightened Def Con from 0.0860351 ++++++++++++++++++++++++++++++++++to 0.0860351
Heightened Def Con from 0.0860351 ++++++++++++++++++++++++++++++++++to 0.0860351
Heightened Def Con from 0.0860351 ++++++++++++++++++++++++++++++++++to 0.0860351
Heightened Def Con from 0.0860351 ++++++++++++++++++++++++++++++++++to 0.0860351
Heightened Def Con from 0.0860351 ++++++++++++++++++++++++++++++++++to 0.0860351
Heightened Def Con from 0.0860351 ++++++++++++++++++++++++++++++++++to 0.0860351
Heightened Def Con from 0.0860351 ++++++++++++++++++++++++++++++++++to 0.0860351
Heightened Def Con from 0.0860351 ++++++++++++++++++++++++++++++++++to 0.0860351
Heightened Def Con from 0.0860351 ++++++++++++++++++++++++++++++++++to 0.0860351
Heightened Def Con from 0.0860351 ++++++++++++++++++++++++++++++++++to 0.0860351
Heightened Def Con from 0.0860351 ++++++++++++++++++++++++++++++++++to 0.0860351
Heightened Def Con from 0.0860351 ++++++++++++++++++++++++++++++++++to 0.0860351
[...]
Heightened Def Con from 0.0860366 ++++++++++++++++++++++++++++++++++to 0.0860366
Heightened Def Con from 0.0860366 ++++++++++++++++++++++++++++++++++to 0.0860366
Heightened Def Con from 0.0860366 ++++++++++++++++++++++++++++++++++to 0.0860366
Heightened Def Con from 0.0860366 ++++++++++++++++++++++++++++++++++to 0.0860366
Heightened Def Con from 0.0860366 ++++++++++++++++++++++++++++++++++to 0.0860366
Heightened Def Con from 0.0860366 ++++++++++++++++++++++++++++++++++to 0.0860366
Heightened Def Con from 0.0860366 ++++++++++++++++++++++++++++++++++to 0.0860366
Heightened Def Con from 0.0860366 ++++++++++++++++++++++++++++++++++to 0.0860366
Heightened Def Con from 0.0860366 ++++++++++++++++++++++++++++++++++to 0.0860366
Heightened Def Con from 0.0860366 ++++++++++++++++++++++++++++++++++to 0.0860366
Heightened Def Con from 0.0860366 ++++++++++++++++++++++++++++++++++to 0.0860366
Heightened Def Con from 0.0860366 ++++++++++++++++++++++++++++++++++to 0.0860366
Heightened Def Con from 0.0860366 ++++++++++++++++++++++++++++++++++to 0.0860366
Heightened Def Con from 0.0860366 ++++++++++++++++++++++++++++++++++to 0.0860366
Heightened Def Con from 0.0860366 ++++++++++++++++++++++++++++++++++to 0.0860367
Heightened Def Con from 0.0860367 ++++++++++++++++++++++++++++++++++to 0.0860367
Heightened Def Con from 0.0860367 ++++++++++++++++++++++++++++++++++to 0.0860367
Heightened Def Con from 0.0860367 ++++++++++++++++++++++++++++++++++to 0.0860367
Heightened Def Con from 0.0860367 ++++++++++++++++++++++++++++++++++to 0.0860367
Heightened Def Con from 0.0860367 ++++++++++++++++++++++++++++++++++to 0.0860367
Heightened Def Con from 0.0860367 ++++++++++++++++++++++++++++++++++to 0.0860367
Heightened Def Con from 0.0860367 ++++++++++++++++++++++++++++++++++to 0.0860367
Heightened Def Con from 0.0860367 ++++++++++++++++++++++++++++++++++to 0.0860367
Heightened Def Con from 0.0860367 ++++++++++++++++++++++++++++++++++to 0.0860367
Heightened Def Con from 0.0860367 ++++++++++++++++++++++++++++++++++to 0.0860367
Heightened Def Con from 0.0860367 ++++++++++++++++++++++++++++++++++to 0.0860367
Heightened Def Con from 0.0860367 ++++++++++++++++++++++++++++++++++to 0.0860367
Heightened Def Con from 0.0860367 ++++++++++++++++++++++++++++++++++to 0.0860367
Heightened Def Con from 0.0860367 ++++++++++++++++++++++++++++++++++to 0.0860367
Heightened Def Con from 0.0860367 ++++++++++++++++++++++++++++++++++to 0.0860367
Heightened Def Con from 0.0860367 ++++++++++++++++++++++++++++++++++to 0.0860367
Heightened Def Con from 0.0860367 ++++++++++++++++++++++++++++++++++to 0.0860367
Heightened Def Con from 0.0860367 ++++++++++++++++++++++++++++++++++to 0.0860367
Heightened Def Con from 0.0860367 ++++++++++++++++++++++++++++++++++to 0.0860367
Heightened Def Con from 0.0860367 ++++++++++++++++++++++++++++++++++to 0.0860367
Heightened Def Con from 0.0860367 ++++++++++++++++++++++++++++++++++to 0.0860367
Heightened Def Con from 0.0860367 ++++++++++++++++++++++++++++++++++to 0.0860367
Heightened Def Con from 0.0860367 ++++++++++++++++++++++++++++++++++to 0.0860367
Heightened Def Con from 0.0860367 ++++++++++++++++++++++++++++++++++to 0.0860367
Heightened Def Con from 0.0860367 ++++++++++++++++++++++++++++++++++to 0.0860367
Heightened Def Con from 0.0860367 ++++++++++++++++++++++++++++++++++to 0.0860367
Heightened Def Con from 0.0860367 ++++++++++++++++++++++++++++++++++to 0.0860367
Heightened Def Con from 0.0860367 ++++++++++++++++++++++++++++++++++to 0.0860367
Heightened Def Con from 0.0860367 ++++++++++++++++++++++++++++++++++to 0.0860367
Heightened Def Con from 0.0860367 ++++++++++++++++++++++++++++++++++to 0.0860367
Heightened Def Con from 0.0860367 ++++++++++++++++++++++++++++++++++to 0.0860367
Heightened Def Con from 0.0860367 ++++++++++++++++++++++++++++++++++to 0.0860367
Heightened Def Con from 0.0860367 ++++++++++++++++++++++++++++++++++to 0.0860367
Heightened Def Con from 0.0860367 ++++++++++++++++++++++++++++++++++to 0.0860367
Heightened Def Con from 0.0860367 ++++++++++++++++++++++++++++++++++to 0.0860367
Heightened Def Con from 0.0860367 ++++++++++++++++++++++++++++++++++to 0.0860367
Heightened Def Con from 0.0860367 ++++++++++++++++++++++++++++++++++to 0.0860367
Heightened Def Con from 0.0860367 ++++++++++++++++++++++++++++++++++to 0.0860367
Heightened Def Con from 0.0860367 ++++++++++++++++++++++++++++++++++to 0.0860367
Heightened Def Con from 0.0860367 ++++++++++++++++++++++++++++++++++to 0.0860367
Heightened Def Con from 0.0860367 ++++++++++++++++++++++++++++++++++to 0.0860367
Heightened Def Con from 0.0860367 ++++++++++++++++++++++++++++++++++to 0.0860367
Heightened Def Con from 0.0860367 ++++++++++++++++++++++++++++++++++to 0.0860367
Heightened Def Con from 0.0860367 ++++++++++++++++++++++++++++++++++to 0.0860367
Heightened Def Con from 0.0860367 ++++++++++++++++++++++++++++++++++to 0.0860367
Heightened Def Con from 0.0860367 ++++++++++++++++++++++++++++++++++to 0.0860367
Heightened Def Con from 0.0860367 ++++++++++++++++++++++++++++++++++to 0.0860367
Heightened Def Con from 0.0860367 ++++++++++++++++++++++++++++++++++to 0.0860367
Heightened Def Con from 0.0860367 ++++++++++++++++++++++++++++++++++to 0.0860367
Heightened Def Con from 0.0860367 ++++++++++++++++++++++++++++++++++to 0.0860367
Heightened Def Con from 0.0860367 ++++++++++++++++++++++++++++++++++to 0.0860367
Heightened Def Con from 0.0860367 ++++++++++++++++++++++++++++++++++to 0.0860367
Heightened Def Con from 0.0860367 ++++++++++++++++++++++++++++++++++to 0.0860367
Heightened Def Con from 0.0860367 ++++++++++++++++++++++++++++++++++to 0.0860367
Heightened Def Con from 0.0860367 ++++++++++++++++++++++++++++++++++to 0.0860367
Heightened Def Con from 0.0860367 ++++++++++++++++++++++++++++++++++to 0.0860367
Heightened Def Con from 0.0860367 ++++++++++++++++++++++++++++++++++to 0.0860367
Heightened Def Con from 0.0860367 ++++++++++++++++++++++++++++++++++to 0.0860367
Heightened Def Con from 0.0860367 ++++++++++++++++++++++++++++++++++to 0.0860367
Heightened Def Con from 0.0860367 ++++++++++++++++++++++++++++++++++to 0.0860367
Heightened Def Con from 0.0860367 ++++++++++++++++++++++++++++++++++to 0.0860367
Heightened Def Con from 0.0860367 ++++++++++++++++++++++++++++++++++to 0.0860367
Heightened Def Con from 0.0860367 ++++++++++++++++++++++++++++++++++to 0.0860367
Heightened Def Con from 0.0860367 ++++++++++++++++++++++++++++++++++to 0.0860367
Heightened Def Con from 0.0860367 ++++++++++++++++++++++++++++++++++to 0.0860367
Heightened Def Con from 0.0860367 ++++++++++++++++++++++++++++++++++to 0.0860367
Heightened Def Con from 0.0860367 ++++++++++++++++++++++++++++++++++to 0.0860367
Heightened Def Con from 0.0860367 ++++++++++++++++++++++++++++++++++to 0.0860367
Heightened Def Con from 0.0860367 ++++++++++++++++++++++++++++++++++to 0.0860367
Heightened Def Con from 0.0860367 ++++++++++++++++++++++++++++++++++to 0.0860367
Heightened Def Con from 0.0860367 ++++++++++++++++++++++++++++++++++to 0.0860367
Heightened Def Con from 0.0860367 ++++++++++++++++++++++++++++++++++to 0.0860367
Heightened Def Con from 0.0860367 ++++++++++++++++++++++++++++++++++to 0.0860367
Heightened Def Con from 0.0860367 ++++++++++++++++++++++++++++++++++to 0.0860367
Heightened Def Con from 0.0860367 ++++++++++++++++++++++++++++++++++to 0.0860367
Heightened Def Con from 0.0860367 ++++++++++++++++++++++++++++++++++to 0.0860367
Heightened Def Con from 0.0860367 ++++++++++++++++++++++++++++++++++to 0.0860367
Heightened Def Con from 0.0860367 ++++++++++++++++++++++++++++++++++to 0.0860367
Heightened Def Con from 0.0860367 ++++++++++++++++++++++++++++++++++to 0.0860367
Heightened Def Con from 0.0860367 ++++++++++++++++++++++++++++++++++to 0.0860367
Heightened Def Con from 0.0860367 ++++++++++++++++++++++++++++++++++to 0.0860367
Heightened Def Con from 0.0860367 ++++++++++++++++++++++++++++++++++to 0.0860367
Heightened Def Con from 0.0860367 ++++++++++++++++++++++++++++++++++to 0.0860367
Heightened Def Con from 0.0860367 ++++++++++++++++++++++++++++++++++to 0.0860367
Heightened Def Con from 0.0860367 ++++++++++++++++++++++++++++++++++to 0.0860367
Heightened Def Con from 0.0860367 ++++++++++++++++++++++++++++++++++to 0.0860367
Heightened Def Con from 0.0860367 ++++++++++++++++++++++++++++++++++to 0.0860367
Heightened Def Con from 0.0860367 ++++++++++++++++++++++++++++++++++to 0.0860367
Heightened Def Con from 0.0860367 ++++++++++++++++++++++++++++++++++to 0.0860367
Heightened Def Con from 0.0860367 ++++++++++++++++++++++++++++++++++to 0.0860367
Heightened Def Con from 0.0860367 ++++++++++++++++++++++++++++++++++to 0.0860367
Heightened Def Con from 0.0860367 ++++++++++++++++++++++++++++++++++to 0.0860367
Heightened Def Con from 0.0860367 ++++++++++++++++++++++++++++++++++to 0.0860367
Heightened Def Con from 0.0860367 ++++++++++++++++++++++++++++++++++to 0.0860367
Heightened Def Con from 0.0860367 ++++++++++++++++++++++++++++++++++to 0.0860367
Heightened Def Con from 0.0860367 ++++++++++++++++++++++++++++++++++to 0.0860367
Heightened Def Con from 0.0860367 ++++++++++++++++++++++++++++++++++to 0.0860367
Heightened Def Con from 0.0860367 ++++++++++++++++++++++++++++++++++to 0.0860367
Heightened Def Con from 0.0860367 ++++++++++++++++++++++++++++++++++to 0.0860367
Heightened Def Con from 0.0860367 ++++++++++++++++++++++++++++++++++to 0.0860368
Heightened Def Con from 0.0860368 ++++++++++++++++++++++++++++++++++to 0.0860368
Heightened Def Con from 0.0860368 ++++++++++++++++++++++++++++++++++to 0.0860368
Heightened Def Con from 0.0860368 ++++++++++++++++++++++++++++++++++to 0.0860368
Heightened Def Con from 0.0860368 ++++++++++++++++++++++++++++++++++to 0.0860368
Heightened Def Con from 0.0860368 ++++++++++++++++++++++++++++++++++to 0.0860368
Heightened Def Con from 0.0860368 ++++++++++++++++++++++++++++++++++to 0.0860368
Heightened Def Con from 0.0860368 ++++++++++++++++++++++++++++++++++to 0.0860368
Heightened Def Con from 0.0860368 ++++++++++++++++++++++++++++++++++to 0.0860368
Heightened Def Con from 0.0860368 ++++++++++++++++++++++++++++++++++to 0.0860368
Heightened Def Con from 0.0860368 ++++++++++++++++++++++++++++++++++to 0.0860368
Heightened Def Con from 0.0860368 ++++++++++++++++++++++++++++++++++to 0.0860368
Heightened Def Con from 0.0860368 ++++++++++++++++++++++++++++++++++to 0.0860368
Heightened Def Con from 0.0860368 ++++++++++++++++++++++++++++++++++to 0.0860368
Heightened Def Con from 0.0860368 ++++++++++++++++++++++++++++++++++to 0.0860368
Heightened Def Con from 0.0860368 ++++++++++++++++++++++++++++++++++to 0.0860368
Heightened Def Con from 0.0860368 ++++++++++++++++++++++++++++++++++to 0.0860368
Heightened Def Con from 0.0860368 ++++++++++++++++++++++++++++++++++to 0.0860368
Heightened Def Con from 0.0860368 ++++++++++++++++++++++++++++++++++to 0.0860368
Heightened Def Con from 0.0860368 ++++++++++++++++++++++++++++++++++to 0.0860368
Heightened Def Con from 0.0860368 ++++++++++++++++++++++++++++++++++to 0.0860368
Heightened Def Con from 0.0860368 ++++++++++++++++++++++++++++++++++to 0.0860368
Heightened Def Con from 0.0860368 ++++++++++++++++++++++++++++++++++to 0.0860368
Heightened Def Con from 0.0860368 ++++++++++++++++++++++++++++++++++to 0.0860368
Heightened Def Con from 0.0860368 ++++++++++++++++++++++++++++++++++to 0.0860368
Heightened Def Con from 0.0860368 ++++++++++++++++++++++++++++++++++to 0.0860368
Heightened Def Con from 0.0860368 ++++++++++++++++++++++++++++++++++to 0.0860368
Heightened Def Con from 0.0860368 ++++++++++++++++++++++++++++++++++to 0.0860368
Heightened Def Con from 0.0860368 ++++++++++++++++++++++++++++++++++to 0.0860368
Heightened Def Con from 0.0860368 ++++++++++++++++++++++++++++++++++to 0.0860368
Heightened Def Con from 0.0860368 ++++++++++++++++++++++++++++++++++to 0.0860368
Heightened Def Con from 0.0860368 ++++++++++++++++++++++++++++++++++to 0.0860368
Heightened Def Con from 0.0860368 ++++++++++++++++++++++++++++++++++to 0.0860368
Heightened Def Con from 0.0860368 ++++++++++++++++++++++++++++++++++to 0.0860368
Heightened Def Con from 0.0860368 ++++++++++++++++++++++++++++++++++to 0.0860368
Heightened Def Con from 0.0860368 ++++++++++++++++++++++++++++++++++to 0.0860368
Heightened Def Con from 0.0860368 ++++++++++++++++++++++++++++++++++to 0.0860368
Heightened Def Con from 0.0860368 ++++++++++++++++++++++++++++++++++to 0.0860368
Heightened Def Con from 0.0860368 ++++++++++++++++++++++++++++++++++to 0.0860368
Heightened Def Con from 0.0860368 ++++++++++++++++++++++++++++++++++to 0.0860368
Heightened Def Con from 0.0860368 ++++++++++++++++++++++++++++++++++to 0.0860368
Heightened Def Con from 0.0860368 ++++++++++++++++++++++++++++++++++to 0.0860368
Heightened Def Con from 0.0860368 ++++++++++++++++++++++++++++++++++to 0.0860368
Heightened Def Con from 0.0860368 ++++++++++++++++++++++++++++++++++to 0.0860368
Heightened Def Con from 0.0860368 ++++++++++++++++++++++++++++++++++to 0.0860368
Heightened Def Con from 0.0860368 ++++++++++++++++++++++++++++++++++to 0.0860368
Heightened Def Con from 0.0860368 ++++++++++++++++++++++++++++++++++to 0.0860368
Heightened Def Con from 0.0860368 ++++++++++++++++++++++++++++++++++to 0.0860368
Heightened Def Con from 0.0860368 ++++++++++++++++++++++++++++++++++to 0.0860368
Heightened Def Con from 0.0860368 ++++++++++++++++++++++++++++++++++to 0.0860368
Heightened Def Con from 0.0860368 ++++++++++++++++++++++++++++++++++to 0.0860368
Heightened Def Con from 0.0860368 ++++++++++++++++++++++++++++++++++to 0.0860368
Heightened Def Con from 0.0860368 ++++++++++++++++++++++++++++++++++to 0.0860368
Heightened Def Con from 0.0860368 ++++++++++++++++++++++++++++++++++to 0.0860368
Heightened Def Con from 0.0860368 ++++++++++++++++++++++++++++++++++to 0.0860368
Heightened Def Con from 0.0860368 ++++++++++++++++++++++++++++++++++to 0.0860368
Heightened Def Con from 0.0860368 ++++++++++++++++++++++++++++++++++to 0.0860368
Heightened Def Con from 0.0860368 ++++++++++++++++++++++++++++++++++to 0.0860368
Heightened Def Con from 0.0860368 ++++++++++++++++++++++++++++++++++to 0.0860368
Heightened Def Con from 0.0860368 ++++++++++++++++++++++++++++++++++to 0.0860368
Heightened Def Con from 0.0860368 ++++++++++++++++++++++++++++++++++to 0.0860368
Heightened Def Con from 0.0860368 ++++++++++++++++++++++++++++++++++to 0.0860368
Heightened Def Con from 0.0860368 ++++++++++++++++++++++++++++++++++to 0.0860368
Heightened Def Con from 0.0860368 ++++++++++++++++++++++++++++++++++to 0.0860368
Heightened Def Con from 0.0860368 ++++++++++++++++++++++++++++++++++to 0.0860368
Heightened Def Con from 0.0860368 ++++++++++++++++++++++++++++++++++to 0.0860368
Heightened Def Con from 0.0860368 ++++++++++++++++++++++++++++++++++to 0.0860368
Heightened Def Con from 0.0860368 ++++++++++++++++++++++++++++++++++to 0.0860368
Heightened Def Con from 0.0860368 ++++++++++++++++++++++++++++++++++to 0.0860368
Heightened Def Con from 0.0860368 ++++++++++++++++++++++++++++++++++to 0.0860368
Heightened Def Con from 0.0860368 ++++++++++++++++++++++++++++++++++to 0.0860368
Heightened Def Con from 0.0860368 ++++++++++++++++++++++++++++++++++to 0.0860368
Heightened Def Con from 0.0860368 ++++++++++++++++++++++++++++++++++to 0.0860368
Heightened Def Con from 0.0860368 ++++++++++++++++++++++++++++++++++to 0.0860368
Heightened Def Con from 0.0860368 ++++++++++++++++++++++++++++++++++to 0.0860368
Heightened Def Con from 0.0860368 ++++++++++++++++++++++++++++++++++to 0.0860368
Heightened Def Con from 0.0860368 ++++++++++++++++++++++++++++++++++to 0.0860368
Heightened Def Con from 0.0860368 ++++++++++++++++++++++++++++++++++to 0.0860368
Heightened Def Con from 0.0860368 ++++++++++++++++++++++++++++++++++to 0.0860368
Heightened Def Con from 0.0860368 ++++++++++++++++++++++++++++++++++to 0.0860368
Heightened Def Con from 0.0860368 ++++++++++++++++++++++++++++++++++to 0.0860368
Heightened Def Con from 0.0860368 ++++++++++++++++++++++++++++++++++to 0.0860368
Heightened Def Con from 0.0860368 ++++++++++++++++++++++++++++++++++to 0.0860368
Heightened Def Con from 0.0860368 ++++++++++++++++++++++++++++++++++to 0.0860368
Heightened Def Con from 0.0860368 ++++++++++++++++++++++++++++++++++to 0.0860368
Heightened Def Con from 0.0860368 ++++++++++++++++++++++++++++++++++to 0.0860368
Heightened Def Con from 0.0860368 ++++++++++++++++++++++++++++++++++to 0.0860368
Heightened Def Con from 0.0860368 ++++++++++++++++++++++++++++++++++to 0.0860368
Heightened Def Con from 0.0860368 ++++++++++++++++++++++++++++++++++to 0.0860368
Heightened Def Con from 0.0860368 ++++++++++++++++++++++++++++++++++to 0.0860368
Heightened Def Con from 0.0860368 ++++++++++++++++++++++++++++++++++to 0.0860368
Heightened Def Con from 0.0860368 ++++++++++++++++++++++++++++++++++to 0.0860368
Heightened Def Con from 0.0860368 ++++++++++++++++++++++++++++++++++to 0.0860368
Heightened Def Con from 0.0860368 ++++++++++++++++++++++++++++++++++to 0.0860368
Heightened Def Con from 0.0860368 ++++++++++++++++++++++++++++++++++to 0.0860368
Heightened Def Con from 0.0860368 ++++++++++++++++++++++++++++++++++to 0.0860368
Heightened Def Con from 0.0860368 ++++++++++++++++++++++++++++++++++to 0.0860368
Heightened Def Con from 0.0860368 ++++++++++++++++++++++++++++++++++to 0.0860368
Heightened Def Con from 0.0860368 ++++++++++++++++++++++++++++++++++to 0.0860368
Heightened Def Con from 0.0860368 ++++++++++++++++++++++++++++++++++to 0.0860368
Heightened Def Con from 0.0860368 ++++++++++++++++++++++++++++++++++to 0.0860369
Heightened Def Con from 0.0860369 ++++++++++++++++++++++++++++++++++to 0.0860369
Heightened Def Con from 0.0860369 ++++++++++++++++++++++++++++++++++to 0.0860369
Heightened Def Con from 0.0860369 ++++++++++++++++++++++++++++++++++to 0.0860369
Heightened Def Con from 0.0860369 ++++++++++++++++++++++++++++++++++to 0.0860369
Heightened Def Con from 0.0860369 ++++++++++++++++++++++++++++++++++to 0.0860369
Heightened Def Con from 0.0860369 ++++++++++++++++++++++++++++++++++to 0.0860369
Heightened Def Con from 0.0860369 ++++++++++++++++++++++++++++++++++to 0.0860369
Heightened Def Con from 0.0860369 ++++++++++++++++++++++++++++++++++to 0.0860369
Heightened Def Con from 0.0860369 ++++++++++++++++++++++++++++++++++to 0.0860369
Heightened Def Con from 0.0860369 ++++++++++++++++++++++++++++++++++to 0.0860369
Heightened Def Con from 0.0860369 ++++++++++++++++++++++++++++++++++to 0.0860369
Heightened Def Con from 0.0860369 ++++++++++++++++++++++++++++++++++to 0.0860369
Heightened Def Con from 0.0860369 ++++++++++++++++++++++++++++++++++to 0.0860369
Heightened Def Con from 0.0860369 ++++++++++++++++++++++++++++++++++to 0.0860369
Heightened Def Con from 0.0860369 ++++++++++++++++++++++++++++++++++to 0.0860369
Heightened Def Con from 0.0860369 ++++++++++++++++++++++++++++++++++to 0.0860369
Heightened Def Con from 0.0860369 ++++++++++++++++++++++++++++++++++to 0.0860369
Heightened Def Con from 0.0860369 ++++++++++++++++++++++++++++++++++to 0.0860369
Heightened Def Con from 0.0860369 ++++++++++++++++++++++++++++++++++to 0.0860369
Heightened Def Con from 0.0860369 ++++++++++++++++++++++++++++++++++to 0.0860369
Heightened Def Con from 0.0860369 ++++++++++++++++++++++++++++++++++to 0.0860369
Heightened Def Con from 0.0860369 ++++++++++++++++++++++++++++++++++to 0.0860369
Heightened Def Con from 0.0860369 ++++++++++++++++++++++++++++++++++to 0.0860369
Heightened Def Con from 0.0860369 ++++++++++++++++++++++++++++++++++to 0.0860369
Heightened Def Con from 0.0860369 ++++++++++++++++++++++++++++++++++to 0.0860369
Heightened Def Con from 0.0860369 +to 0.0860369

Date: Fri Sep 09 20:30:57 2022
Total elapsed time: 276.569 seconds.

tnom = 27
temp = 27
method = modified trap
totiter = 9651058
traniter = 9650689
tranpoints = 941675
accept = 174036
rejected = 863156
matrix size = 81
fillins = 40
solver = Normal
Thread vector: 21.6/8.5[9] 15.8/6.7[9] 4.0/8.5[1] 0.4/2.6[1]  2592/500
Matrix Compiler1: 13.10 KB object code size  5.3/4.0/[1.4]
Matrix Compiler2: 8.93 KB object code size  0.9/1.0/[0.4]

