Circuit: * C:\Users\jmfro\OneDrive\Documents\EE333-Project1\ProjectDraft.asc

WARNING: Node N011 is floating.

WARNING: Less than two connections to node NC_02.  This node is used by S:U1:1.
Early termination of direct N-R iteration.
Direct Newton iteration failed to find .op point.  (Use ".option noopiter" to skip.)
Starting Gmin stepping
Gmin = 10
Gmin = 1.07374
Gmin = 0.115292
Gmin = 0.0123794
Gmin = 0.00132923
Gmin = 0.000142725
Gmin = 1.5325e-005
Gmin = 1.6455e-006
Gmin = 1.76685e-007
Gmin = 1.89714e-008
Gmin = 2.03704e-009
Gmin = 2.18725e-010
Gmin = 2.34854e-011
Gmin = 2.52173e-012
Gmin = 2.70769e-013
Gmin = 0
Gmin stepping succeeded in finding the operating point.


Date: Fri Sep 02 23:17:42 2022
Total elapsed time: 13.671 seconds.

tnom = 27
temp = 27
method = modified trap
totiter = 153394
traniter = 153025
tranpoints = 74950
accept = 74347
rejected = 603
matrix size = 81
fillins = 40
solver = Normal
Thread vector: 22.3/11.6[9] 6.3/3.9[9] 4.7/2.2[8] 0.3/0.8[1]  2592/500
Matrix Compiler1: 13.10 KB object code size  2.2/1.4/[0.6]
Matrix Compiler2: 8.93 KB object code size  1.1/1.4/[0.4]

