Circuit: * C:\Users\austi\OneDrive\Documents\EE333-Project1\ProjectDraft.asc

WARNING: Node 120VACH is floating.

WARNING: Less than two connections to node NC_02.  This node is used by S:U1:1.
Early termination of direct N-R iteration.
Direct Newton iteration failed to find .op point.  (Use ".option noopiter" to skip.)
Starting Gmin stepping
Gmin = 10
Gmin = 1.07374
Gmin = 0.115292
Gmin = 0.0123794
Gmin = 0.00132923
Gmin = 0.000142725
Gmin = 1.5325e-005
Gmin = 1.6455e-006
Gmin = 1.76685e-007
Gmin = 1.89714e-008
Gmin = 2.03704e-009
Gmin = 2.18725e-010
Gmin = 2.34854e-011
Gmin = 2.52173e-012
Gmin = 2.70769e-013
Gmin = 0
Gmin stepping succeeded in finding the operating point.


Date: Fri Sep 16 20:53:12 2022
Total elapsed time: 14.959 seconds.

tnom = 27
temp = 27
method = modified trap
totiter = 169497
traniter = 169127
tranpoints = 79518
accept = 77604
rejected = 1914
matrix size = 72
fillins = 35
solver = Normal
Thread vector: 54.7/23.2[8] 16.9/4.6[8] 10.9/5.8[8] 0.8/1.5[1]  2592/500
Matrix Compiler1: 11.15 KB object code size  3.3/2.7/[1.5]
Matrix Compiler2: 7.81 KB object code size  3.3/2.2/[1.1]

