Circuit: * C:\Users\austi\OneDrive\Documents\EE333-Project1\ProjectDraft.asc

Warning: Multiple definitions of model "u2:iq" Type: Switch
WARNING: Node U1:N003 is floating.
WARNING: Node N009 is floating.

WARNING: Less than two connections to node NC_02.  This node is used by S:U1:1.
Direct Newton iteration failed to find .op point.  (Use ".option noopiter" to skip.)
Starting Gmin stepping
Gmin = 10
Gmin = 1.07374
Gmin = 0.115292
Gmin = 0.0123794
Gmin = 0.00132923
Gmin = 0.000142725
Gmin = 1.5325e-005
Gmin = 1.6455e-006
Gmin = 1.76685e-007
Gmin = 1.89714e-008
Gmin = 2.03704e-009
Gmin = 2.18725e-010
Gmin = 2.34854e-011
Gmin = 2.52173e-012
Gmin = 2.70769e-013
vernier = 0.5
Terminal Gmin changed to 1e-014
Gmin = 9.73667e-014
vernier = 0.25
vernier = 0.333333
Gmin = 5.87314e-014
vernier = 0.166667
vernier = 0.0833333
vernier = 0.0416667
Gmin = 5.46335e-014
vernier = 0.0555555
vernier = 0.0277778
vernier = 0.0138889
Gmin = 5.16953e-014
vernier = 0.00694444
vernier = 0.00347222
Gmin = 5.13378e-014
vernier = 0.00462963
vernier = 0.00231481
vernier = 0.00115741
vernier = 0.000578703
Gmin = 5.11156e-014
vernier = 0.000434027
Gmin = 0
Gmin stepping failed

Starting source stepping with srcstepmethod=0
Could not converge to DC with sources off!
Starting source stepping with srcstepmethod=1
Source Step = 3.0303%
vernier = 0.25
Source Step = 0.0355114%
Source stepping failed

Pseudo Transient failed in finding the operating point at 18.4045 ms.
Trouble finding operating point....skipping operating point for Transient analysis.

Date: Mon Aug 29 23:15:13 2022
Total elapsed time: 5.433 seconds.

tnom = 27
temp = 27
method = modified trap
totiter = 232558
traniter = 0
tranpoints = 1
accept = 1
rejected = 4548
matrix size = 102
fillins = 41
solver = Normal
Thread vector: 17.2/8.7[8] 4.7/2.9[8] 6.9/3.5[8] 0.5/1.9[1]  2592/500
Matrix Compiler1: 14.25 KB object code size  2.1/1.2/[0.6]
Matrix Compiler2: 10.55 KB object code size  1.1/1.5/[0.5]

