Circuit: * C:\Users\jmfro\OneDrive\Documents\EE333-Project1\ProjectDraft.asc

Warning: Multiple definitions of model "u2:iq" Type: Switch
WARNING: Node N009 is floating.

WARNING: Less than two connections to node NC_02.  This node is used by S:U1:1.
Singular matrix:  Check node nc_07
   Iteration No. 11
Direct Newton iteration failed to find .op point.  (Use ".option noopiter" to skip.)
Starting Gmin stepping
Gmin = 10
Gmin = 1.07374
Gmin = 0.115292
Gmin = 0.0123794
Gmin = 0.00132923
Gmin = 0.000142725
Gmin = 1.5325e-005
Gmin = 1.6455e-006
Gmin = 1.76685e-007
Gmin = 1.89714e-008
Gmin = 2.03704e-009
Gmin = 2.18725e-010
Gmin = 2.34854e-011
Gmin = 2.52173e-012
Gmin = 2.70769e-013
Singular matrix:  Check node nc_07
   Iteration No. 18
Gmin = 0
Singular matrix:  Check node nc_07
   Iteration No. 1
Gmin stepping failed

Starting source stepping with srcstepmethod=0
Source Step = 3.0303%
Source Step = 33.3333%
Source Step = 63.6364%
Source Step = 93.9394%
Singular matrix:  Check node nc_07
   Iteration No. 10
Singular matrix:  Check node nc_07
   Iteration No. 3
Singular matrix:  Check node nc_07
   Iteration No. 1
Singular matrix:  Check node nc_07
   Iteration No. 1
Singular matrix:  Check node nc_07
   Iteration No. 14
Source Step = 100%
Singular matrix:  Check node nc_07
   Iteration No. 5
Singular matrix:  Check node nc_17
   Iteration No. 11
Singular matrix:  Check node nc_07
   Iteration No. 14
Starting source stepping with srcstepmethod=1
Source Step = 3.0303%
Singular matrix:  Check node nc_07
   Iteration No. 11
Source stepping failed

Pseudo Transient failed in finding the operating point at 43.1297 ms.
Trouble finding operating point....skipping operating point for Transient analysis.
Heightened Def Con from 0.0512334 to 0.0512334

Date: Tue Aug 30 18:49:22 2022
Total elapsed time: 71.080 seconds.

tnom = 27
temp = 27
method = modified trap
totiter = 3177117
traniter = 2592863
tranpoints = 800383
accept = 589045
rejected = 223943
matrix size = 101
fillins = 38
solver = Normal
Thread vector: 17.9/6.4[8] 4.0/1.9[8] 2.9/1.5[8] 0.3/0.7[1]  2592/500
Matrix Compiler1: 11.33 KB object code size  1.6/0.9/[0.5]
Matrix Compiler2: 9.46 KB object code size  0.8/1.1/[0.4]

